CM
CE
GW 101  20 -7.500000 -5.000000 -5.000000 -7.500000 -5.000000 5.000000 0.001000
GW 102  20 -2.500000 -5.000000 -5.000000 -2.500000 -5.000000 5.000000 0.001000
GW 103  20 2.500000 -5.000000 -5.000000 2.500000 -5.000000 5.000000 0.001000
GW 104  20 7.500000 -5.000000 -5.000000 7.500000 -5.000000 5.000000 0.001000
GW 201  20 -7.500000 0.000000 -5.000000 -7.500000 0.000000 5.000000 0.001000
GW 202  20 -2.500000 0.000000 -5.000000 -2.500000 0.000000 5.000000 0.001000
GW 203  20 2.500000 0.000000 -5.000000 2.500000 0.000000 5.000000 0.001000
GW 204  20 7.500000 0.000000 -5.000000 7.500000 0.000000 5.000000 0.001000
GW 301  20 -7.500000 5.000000 -5.000000 -7.500000 5.000000 5.000000 0.001000
GW 302  20 -2.500000 5.000000 -5.000000 -2.500000 5.000000 5.000000 0.001000
GW 303  20 2.500000 5.000000 -5.000000 2.500000 5.000000 5.000000 0.001000
GW 304  20 7.500000 5.000000 -5.000000 7.500000 5.000000 5.000000 0.001000
GE 0 
GN -1 0  0  0  10.0  0.01 
FR  0  0  0  0   150 
EX  0 101  10 0   -1.4746E-003   1.3248E-003 
EX  0 102  10 0   1.1287E-003   1.7407E-003 
EX  0 103  10 0   1.9185E-003   -7.5398E-004 
EX  0 104  10 0   -4.4521E-004   -2.0675E-003 
EX  0 201  10 0   -1.2441E-003   1.2024E-003 
EX  0 202  10 0   1.1159E-003   1.5670E-003 
EX  0 203  10 0   1.7612E-003   -7.2680E-004 
EX  0 204  10 0   -4.7355E-004   -1.9819E-003 
EX  0 301  10 0   -1.4746E-003   1.3248E-003 
EX  0 302  10 0   1.1287E-003   1.7407E-003 
EX  0 303  10 0   1.9185E-003   -7.5398E-004 
EX  0 304  10 0   -4.4521E-004   -2.0675E-003 
RP  0  19  72  1010 0.0 0.0 5.0 5.0
EN
