CM
CE
GW 101  20 -5.030000 0.000000 -5.000000 -5.030000 0.000000 5.000000 0.001000
GW 102  20 0.000000 -5.030000 -5.000000 0.000000 -5.030000 5.000000 0.001000
GW 103  20 0.000000 5.030000 -5.000000 0.000000 5.030000 5.000000 0.001000
GW 104  20 5.030000 0.000000 -5.000000 5.030000 0.000000 5.000000 0.001000
GE 0 
GN -1 
FR  0  0  0  0   5.0 
EX  0 101  10 0    1.0000E+000    0.0000E+000 
EX  0 102  10 0    1.0000E+000    0.0000E+000 
EX  0 103  10 0    1.0000E+000    0.0000E+000 
EX  0 104  10 0    1.0000E+000    0.0000E+000 
PT -1
RP  0  19  72  1010 0.0 0.0 5.0 5.0
EN
