CM
CE
GW 101  20 -7.500000 -7.500000 -5.000000 -7.500000 -7.500000 5.000000 0.001000
GW 102  20 7.500000 -7.500000 -5.000000 7.500000 -7.500000 5.000000 0.001000
GW 103  20 -7.500000 7.500000 -5.000000 -7.500000 7.500000 5.000000 0.001000
GW 104  20 7.500000 7.500000 -5.000000 7.500000 7.500000 5.000000 0.001000
GE 0 
GN -1 
FR  0  0  0  0   10 
EX  0 101  10 0   7.4880E+001   1.1070E+001 
EX  0 102  10 0   -4.7090E+001   -5.5435E+001 
EX  0 103  10 0   -4.7090E+001   -5.5435E+001 
EX  0 104  10 0   -2.7024E+001   3.0675E+001 
RP  0  19  72  1010 0.0 0.0 5.0 5.0
EN
