CM
CE
GW 101  25 -10.00000 -10.00000 0.350000 -11.7582 -11.7773 2.700000 0.001000
GW 102  50 -11.7582 -11.7773 2.700000 -10.00000 -10.00000 15.20000 0.001000
GW 103  25 -10.00000 -10.00000 0.350000 -12.50000 -10.0135 2.700000 0.001000
GW 104  50 -12.50000 -10.0135 2.700000 -10.00000 -10.00000 15.20000 0.001000
GW 105  25 -10.00000 -10.00000 0.350000 -11.7798 -7.77734 2.700000 0.001000
GW 106  50 -11.7798 -7.77734 2.700000 -10.00000 -10.00000 15.20000 0.001000
GW 107  25 -10.00000 -10.00000 0.350000 -10.0135 -7.50004 2.700000 0.001000
GW 108  50 -10.0135 -7.50004 2.700000 -10.00000 -10.00000 15.20000 0.001000
GW 109  25 -10.00000 -10.00000 0.350000 -7.77985 -7.75575 2.700000 0.001000
GW 110  50 -7.77985 -7.75575 2.700000 -10.00000 -10.00000 15.20000 0.001000
GW 111  25 -10.00000 -10.00000 0.350000 -7.50004 -9.986500 2.700000 0.001000
GW 112  50 -7.50004 -9.986500 2.700000 -10.00000 -10.00000 15.20000 0.001000
GW 113  25 -10.00000 -10.00000 0.350000 -7.75826 -11.7557 2.700000 0.001000
GW 114  50 -7.75826 -11.7557 2.700000 -10.00000 -10.00000 15.20000 0.001000
GW 115  25 -10.00000 -10.00000 0.350000 -9.986500 -12.50000 2.700000 0.001000
GW 116  50 -9.986500 -12.50000 2.700000 -10.00000 -10.00000 15.20000 0.001000
GW 117  3  -10.00000 -10.00000 0.200000 -10.00000 -10.00000 0.350000 0.001000
GW 118  4  -10.00000 -10.00000 0.200000 -9.99892 -10.20000 0.200000 0.001000
GW 119  50 -9.99892 -10.20000 0.200000 -9.91903 -24.9998 0.200000 0.001000
GW 120  4  -10.00000 -10.00000 0.200000 -10.0608 -10.1905 0.200000 0.001000
GW 121  50 -10.0608 -10.1905 0.200000 -14.5582 -24.2907 0.200000 0.001000
GW 122  4  -10.00000 -10.00000 0.200000 -10.1167 -10.1624 0.200000 0.001000
GW 123  50 -10.1167 -10.1624 0.200000 -18.7511 -22.1827 0.200000 0.001000
GW 124  4  -10.00000 -10.00000 0.200000 -10.1612 -10.1184 0.200000 0.001000
GW 125  50 -10.1612 -10.1184 0.200000 -22.0713 -21.8821 0.200000 0.001000
GW 126  4  -10.00000 -10.00000 0.200000 -10.1899 -10.0628 0.200000 0.001000
GW 127  50 -10.1899 -10.0628 0.200000 -24.2406 -14.7122 0.200000 0.001000
GW 128  4  -10.00000 -10.00000 0.200000 -10.20000 -10.0011 0.200000 0.001000
GW 129  50 -10.20000 -10.0011 0.200000 -24.9998 -10.08100 0.200000 0.001000
GW 130  25 10.00000 -10.00000 0.350000 11.7773 -11.7582 2.700000 0.001000
GW 131  50 11.7773 -11.7582 2.700000 10.00000 -10.00000 15.20000 0.001000
GW 132  25 10.00000 -10.00000 0.350000 10.0135 -12.50000 2.700000 0.001000
GW 133  50 10.0135 -12.50000 2.700000 10.00000 -10.00000 15.20000 0.001000
GW 134  25 10.00000 -10.00000 0.350000 7.77734 -11.7798 2.700000 0.001000
GW 135  50 7.77734 -11.7798 2.700000 10.00000 -10.00000 15.20000 0.001000
GW 136  25 10.00000 -10.00000 0.350000 7.50004 -10.0135 2.700000 0.001000
GW 137  50 7.50004 -10.0135 2.700000 10.00000 -10.00000 15.20000 0.001000
GW 138  25 10.00000 -10.00000 0.350000 7.75575 -7.77985 2.700000 0.001000
GW 139  50 7.75575 -7.77985 2.700000 10.00000 -10.00000 15.20000 0.001000
GW 140  25 10.00000 -10.00000 0.350000 9.986500 -7.50004 2.700000 0.001000
GW 141  50 9.986500 -7.50004 2.700000 10.00000 -10.00000 15.20000 0.001000
GW 142  25 10.00000 -10.00000 0.350000 11.7557 -7.75826 2.700000 0.001000
GW 143  50 11.7557 -7.75826 2.700000 10.00000 -10.00000 15.20000 0.001000
GW 144  25 10.00000 -10.00000 0.350000 12.50000 -9.986500 2.700000 0.001000
GW 145  50 12.50000 -9.986500 2.700000 10.00000 -10.00000 15.20000 0.001000
GW 146  3  10.00000 -10.00000 0.200000 10.00000 -10.00000 0.350000 0.001000
GW 147  4  10.00000 -10.00000 0.200000 10.20000 -9.99892 0.200000 0.001000
GW 148  50 10.20000 -9.99892 0.200000 24.9998 -9.91903 0.200000 0.001000
GW 149  4  10.00000 -10.00000 0.200000 10.1905 -10.0608 0.200000 0.001000
GW 150  50 10.1905 -10.0608 0.200000 24.2907 -14.5582 0.200000 0.001000
GW 151  4  10.00000 -10.00000 0.200000 10.1624 -10.1167 0.200000 0.001000
GW 152  50 10.1624 -10.1167 0.200000 22.1827 -18.7511 0.200000 0.001000
GW 153  4  10.00000 -10.00000 0.200000 10.1184 -10.1612 0.200000 0.001000
GW 154  50 10.1184 -10.1612 0.200000 21.8821 -22.0713 0.200000 0.001000
GW 155  4  10.00000 -10.00000 0.200000 10.0628 -10.1899 0.200000 0.001000
GW 156  50 10.0628 -10.1899 0.200000 14.7122 -24.2406 0.200000 0.001000
GW 157  4  10.00000 -10.00000 0.200000 10.0011 -10.20000 0.200000 0.001000
GW 158  50 10.0011 -10.20000 0.200000 10.08100 -24.9998 0.200000 0.001000
GW 159  25 -10.00000 10.00000 0.350000 -11.7773 11.7582 2.700000 0.001000
GW 160  50 -11.7773 11.7582 2.700000 -10.00000 10.00000 15.20000 0.001000
GW 161  25 -10.00000 10.00000 0.350000 -10.0135 12.50000 2.700000 0.001000
GW 162  50 -10.0135 12.50000 2.700000 -10.00000 10.00000 15.20000 0.001000
GW 163  25 -10.00000 10.00000 0.350000 -7.77734 11.7798 2.700000 0.001000
GW 164  50 -7.77734 11.7798 2.700000 -10.00000 10.00000 15.20000 0.001000
GW 165  25 -10.00000 10.00000 0.350000 -7.50004 10.0135 2.700000 0.001000
GW 166  50 -7.50004 10.0135 2.700000 -10.00000 10.00000 15.20000 0.001000
GW 167  25 -10.00000 10.00000 0.350000 -7.75575 7.77985 2.700000 0.001000
GW 168  50 -7.75575 7.77985 2.700000 -10.00000 10.00000 15.20000 0.001000
GW 169  25 -10.00000 10.00000 0.350000 -9.986500 7.50004 2.700000 0.001000
GW 170  50 -9.986500 7.50004 2.700000 -10.00000 10.00000 15.20000 0.001000
GW 171  25 -10.00000 10.00000 0.350000 -11.7557 7.75826 2.700000 0.001000
GW 172  50 -11.7557 7.75826 2.700000 -10.00000 10.00000 15.20000 0.001000
GW 173  25 -10.00000 10.00000 0.350000 -12.50000 9.986500 2.700000 0.001000
GW 174  50 -12.50000 9.986500 2.700000 -10.00000 10.00000 15.20000 0.001000
GW 175  3  -10.00000 10.00000 0.200000 -10.00000 10.00000 0.350000 0.001000
GW 176  4  -10.00000 10.00000 0.200000 -10.20000 9.99892 0.200000 0.001000
GW 177  50 -10.20000 9.99892 0.200000 -24.9998 9.91903 0.200000 0.001000
GW 178  4  -10.00000 10.00000 0.200000 -10.1905 10.0608 0.200000 0.001000
GW 179  50 -10.1905 10.0608 0.200000 -24.2907 14.5582 0.200000 0.001000
GW 180  4  -10.00000 10.00000 0.200000 -10.1624 10.1167 0.200000 0.001000
GW 181  50 -10.1624 10.1167 0.200000 -22.1827 18.7511 0.200000 0.001000
GW 182  4  -10.00000 10.00000 0.200000 -10.1184 10.1612 0.200000 0.001000
GW 183  50 -10.1184 10.1612 0.200000 -21.8821 22.0713 0.200000 0.001000
GW 184  4  -10.00000 10.00000 0.200000 -10.0628 10.1899 0.200000 0.001000
GW 185  50 -10.0628 10.1899 0.200000 -14.7122 24.2406 0.200000 0.001000
GW 186  4  -10.00000 10.00000 0.200000 -10.0011 10.20000 0.200000 0.001000
GW 187  50 -10.0011 10.20000 0.200000 -10.08100 24.9998 0.200000 0.001000
GW 188  25 10.00000 10.00000 0.350000 11.7582 11.7773 2.700000 0.001000
GW 189  50 11.7582 11.7773 2.700000 10.00000 10.00000 15.20000 0.001000
GW 190  25 10.00000 10.00000 0.350000 12.50000 10.0135 2.700000 0.001000
GW 191  50 12.50000 10.0135 2.700000 10.00000 10.00000 15.20000 0.001000
GW 192  25 10.00000 10.00000 0.350000 11.7798 7.77734 2.700000 0.001000
GW 193  50 11.7798 7.77734 2.700000 10.00000 10.00000 15.20000 0.001000
GW 194  25 10.00000 10.00000 0.350000 10.0135 7.50004 2.700000 0.001000
GW 195  50 10.0135 7.50004 2.700000 10.00000 10.00000 15.20000 0.001000
GW 196  25 10.00000 10.00000 0.350000 7.77985 7.75575 2.700000 0.001000
GW 197  50 7.77985 7.75575 2.700000 10.00000 10.00000 15.20000 0.001000
GW 198  25 10.00000 10.00000 0.350000 7.50004 9.986500 2.700000 0.001000
GW 199  50 7.50004 9.986500 2.700000 10.00000 10.00000 15.20000 0.001000
GW 200  25 10.00000 10.00000 0.350000 7.75826 11.7557 2.700000 0.001000
GW 201  50 7.75826 11.7557 2.700000 10.00000 10.00000 15.20000 0.001000
GW 202  25 10.00000 10.00000 0.350000 9.986500 12.50000 2.700000 0.001000
GW 203  50 9.986500 12.50000 2.700000 10.00000 10.00000 15.20000 0.001000
GW 204  3  10.00000 10.00000 0.200000 10.00000 10.00000 0.350000 0.001000
GW 205  4  10.00000 10.00000 0.200000 9.99892 10.20000 0.200000 0.001000
GW 206  50 9.99892 10.20000 0.200000 9.91903 24.9998 0.200000 0.001000
GW 207  4  10.00000 10.00000 0.200000 10.0608 10.1905 0.200000 0.001000
GW 208  50 10.0608 10.1905 0.200000 14.5582 24.2907 0.200000 0.001000
GW 209  4  10.00000 10.00000 0.200000 10.1167 10.1624 0.200000 0.001000
GW 210  50 10.1167 10.1624 0.200000 18.7511 22.1827 0.200000 0.001000
GW 211  4  10.00000 10.00000 0.200000 10.1612 10.1184 0.200000 0.001000
GW 212  50 10.1612 10.1184 0.200000 22.0713 21.8821 0.200000 0.001000
GW 213  4  10.00000 10.00000 0.200000 10.1899 10.0628 0.200000 0.001000
GW 214  50 10.1899 10.0628 0.200000 24.2406 14.7122 0.200000 0.001000
GW 215  4  10.00000 10.00000 0.200000 10.20000 10.0011 0.200000 0.001000
GW 216  50 10.20000 10.0011 0.200000 24.9998 10.08100 0.200000 0.001000
GE 1 
GN  2  0  0  0  10.0  0.01 
FR  0  0  0  0   5.0 
EX  0 117  2  0   -7.1158E-002   -4.4746E+000 
EX  0 146  2  0   -4.1414E+000   2.4078E+000 
EX  0 175  2  0   -4.1453E+000   2.3829E+000 
EX  0 204  2  0   -7.9764E+000   4.6133E+000 
RP  0  19  72  1010 0.0 0.0 5.0 5.0
EN
