CM
CE
GW 101  20 -10.03000 -5.000000 -5.000000 -10.03000 -5.000000 5.000000 0.001000
GW 102  20 -3.550000 -6.480000 -5.000000 -3.550000 -6.480000 5.000000 0.001000
GW 103  20 5.000000 -10.03000 -5.000000 5.000000 -10.03000 5.000000 0.001000
GW 104  20 -6.480000 3.550000 -5.000000 -6.480000 3.550000 5.000000 0.001000
GW 105  20 -3.520000 -3.550000 -5.000000 -3.520000 -3.550000 5.000000 0.001000
GW 106  20 6.480000 -3.550000 -5.000000 6.480000 -3.550000 5.000000 0.001000
GW 107  20 -5.000000 10.03000 -5.000000 -5.000000 10.03000 5.000000 0.001000
GW 108  20 3.550000 6.480000 -5.000000 3.550000 6.480000 5.000000 0.001000
GW 109  20 10.03000 5.000000 -5.000000 10.03000 5.000000 5.000000 0.001000
GE 0 
GN -1 
FR  0  0  0  0   5.0 
EX  0 101  10 0    1.0000E+000    0.0000E+000 
EX  0 102  10 0    1.0000E+000    0.0000E+000 
EX  0 103  10 0    1.0000E+000    0.0000E+000 
EX  0 104  10 0    1.0000E+000    0.0000E+000 
EX  0 105  10 0    1.0000E+000    0.0000E+000 
EX  0 106  10 0    1.0000E+000    0.0000E+000 
EX  0 107  10 0    1.0000E+000    0.0000E+000 
EX  0 108  10 0    1.0000E+000    0.0000E+000 
EX  0 109  10 0    1.0000E+000    0.0000E+000 
PT -1
RP  0  19  72  1010 0.0 0.0 5.0 5.0
EN
