CM
CE
GW 101 	 25	 -30.00000	 -30.00000	 0.350000	 -31.75820	 -31.77730	 2.700000	 0.001000
GW 102 	 50	 -31.75820	 -31.77730	 2.700000	 -30.00000	 -30.00000	 15.20000	 0.001000
GW 103 	 25	 -30.00000	 -30.00000	 0.350000	 -32.50000	 -30.01350	 2.700000	 0.001000
GW 104 	 50	 -32.50000	 -30.01350	 2.700000	 -30.00000	 -30.00000	 15.20000	 0.001000
GW 105 	 25	 -30.00000	 -30.00000	 0.350000	 -31.77980	 -27.77730	 2.700000	 0.001000
GW 106 	 50	 -31.77980	 -27.77730	 2.700000	 -30.00000	 -30.00000	 15.20000	 0.001000
GW 107 	 25	 -30.00000	 -30.00000	 0.350000	 -30.01350	 -27.50000	 2.700000	 0.001000
GW 108 	 50	 -30.01350	 -27.50000	 2.700000	 -30.00000	 -30.00000	 15.20000	 0.001000
GW 109 	 25	 -30.00000	 -30.00000	 0.350000	 -27.77980	 -27.75570	 2.700000	 0.001000
GW 110 	 50	 -27.77980	 -27.75570	 2.700000	 -30.00000	 -30.00000	 15.20000	 0.001000
GW 111 	 25	 -30.00000	 -30.00000	 0.350000	 -27.50000	 -29.98650	 2.700000	 0.001000
GW 112 	 50	 -27.50000	 -29.98650	 2.700000	 -30.00000	 -30.00000	 15.20000	 0.001000
GW 113 	 25	 -30.00000	 -30.00000	 0.350000	 -27.75830	 -31.75570	 2.700000	 0.001000
GW 114 	 50	 -27.75830	 -31.75570	 2.700000	 -30.00000	 -30.00000	 15.20000	 0.001000
GW 115 	 25	 -30.00000	 -30.00000	 0.350000	 -29.98650	 -32.50000	 2.700000	 0.001000
GW 116 	 50	 -29.98650	 -32.50000	 2.700000	 -30.00000	 -30.00000	 15.20000	 0.001000
GW 117 	 3 	 -30.00000	 -30.00000	 0.200000	 -30.00000	 -30.00000	 0.350000	 0.001000
GW 118 	 4 	 -30.00000	 -30.00000	 0.200000	 -29.99890	 -30.20000	 0.200000	 0.001000
GW 119 	 50	 -29.99890	 -30.20000	 0.200000	 -29.91900	 -44.99980	 0.200000	 0.001000
GW 120 	 4 	 -30.00000	 -30.00000	 0.200000	 -30.06080	 -30.19050	 0.200000	 0.001000
GW 121 	 50	 -30.06080	 -30.19050	 0.200000	 -34.55820	 -44.29070	 0.200000	 0.001000
GW 122 	 4 	 -30.00000	 -30.00000	 0.200000	 -30.11670	 -30.16240	 0.200000	 0.001000
GW 123 	 50	 -30.11670	 -30.16240	 0.200000	 -38.75110	 -42.18270	 0.200000	 0.001000
GW 124 	 4 	 -30.00000	 -30.00000	 0.200000	 -30.16120	 -30.11840	 0.200000	 0.001000
GW 125 	 50	 -30.16120	 -30.11840	 0.200000	 -42.07130	 -41.88210	 0.200000	 0.001000
GW 126 	 4 	 -30.00000	 -30.00000	 0.200000	 -30.18990	 -30.06280	 0.200000	 0.001000
GW 127 	 50	 -30.18990	 -30.06280	 0.200000	 -44.24060	 -34.71220	 0.200000	 0.001000
GW 128 	 4 	 -30.00000	 -30.00000	 0.200000	 -30.20000	 -30.00110	 0.200000	 0.001000
GW 129 	 50	 -30.20000	 -30.00110	 0.200000	 -44.99980	 -30.08100	 0.200000	 0.001000
GW 130 	 25	 0.000000	 -30.00000	 0.350000	0.013495	 -32.50000	 2.700000	 0.001000
GW 131 	 50	0.013495	 -32.50000	 2.700000	 0.000000	 -30.00000	 15.20000	 0.001000
GW 132 	 25	 0.000000	 -30.00000	 0.350000	 -1.758200	 -31.77730	 2.700000	 0.001000
GW 133 	 50	 -1.758200	 -31.77730	 2.700000	 0.000000	 -30.00000	 15.20000	 0.001000
GW 134 	 25	 0.000000	 -30.00000	 0.350000	 -2.830160	 -29.68680	 2.700000	 0.001000
GW 135 	 50	 -2.830160	 -29.68680	 2.700000	 0.000000	 -30.00000	 15.20000	 0.001000
GW 136 	 25	 0.000000	 -30.00000	 0.350000	 -1.777280	 -28.24180	 2.700000	 0.001000
GW 137 	 50	 -1.777280	 -28.24180	 2.700000	 0.000000	 -30.00000	 15.20000	 0.001000
GW 138 	 25	 0.000000	 -30.00000	 0.350000	0.017041	 -26.84320	 2.700000	 0.001000
GW 139 	 50	0.017041	 -26.84320	 2.700000	 0.000000	 -30.00000	 15.20000	 0.001000
GW 140 	 25	 0.000000	 -30.00000	 0.350000	 1.758200	 -28.22270	 2.700000	 0.001000
GW 141 	 50	 1.758200	 -28.22270	 2.700000	 0.000000	 -30.00000	 15.20000	 0.001000
GW 142 	 25	 0.000000	 -30.00000	 0.350000	 2.826610	 -29.65630	 2.700000	 0.001000
GW 143 	 50	 2.826610	 -29.65630	 2.700000	 0.000000	 -30.00000	 15.20000	 0.001000
GW 144 	 25	 0.000000	 -30.00000	 0.350000	 1.777280	 -31.75820	 2.700000	 0.001000
GW 145 	 50	 1.777280	 -31.75820	 2.700000	 0.000000	 -30.00000	 15.20000	 0.001000
GW 146 	 3 	 0.000000	 -30.00000	 0.200000	 0.000000	 -30.00000	 0.350000	 0.001000
GW 147 	 4 	 0.000000	 -30.00000	 0.200000	0.142183	 -30.14070	 0.200000	 0.001000
GW 148 	 50	0.142183	 -30.14070	 0.200000	 10.66370	 -40.54920	 0.200000	 0.001000
GW 149 	 4 	 0.000000	 -30.00000	 0.200000	0.091758	 -30.17770	 0.200000	 0.001000
GW 150 	 50	0.091758	 -30.17770	 0.200000	 6.881910	 -43.32810	 0.200000	 0.001000
GW 151 	 4 	 0.000000	 -30.00000	 0.200000	0.032352	 -30.19740	 0.200000	 0.001000
GW 152 	 50	0.032352	 -30.19740	 0.200000	 2.426460	 -44.80240	 0.200000	 0.001000
GW 153 	 4 	 0.000000	 -30.00000	 0.200000	0.030219	 -30.19770	 0.200000	 0.001000
GW 154 	 50	0.030219	 -30.19770	 0.200000	0.133767	 -46.93760	 0.200000	 0.001000
GW 155 	 4 	 0.000000	 -30.00000	 0.200000	0.089834	 -30.17870	 0.200000	 0.001000
GW 156 	 50	0.089834	 -30.17870	 0.200000	 -6.737610	 -43.40170	 0.200000	 0.001000
GW 157 	 4 	 0.000000	 -30.00000	 0.200000	0.140656	 -30.14220	 0.200000	 0.001000
GW 158 	 50	0.140656	 -30.14220	 0.200000	 -10.54920	 -40.66370	 0.200000	 0.001000
GW 159 	 25	 30.00000	 -30.00000	 0.350000	 31.77730	 -31.75820	 2.700000	 0.001000
GW 160 	 50	 31.77730	 -31.75820	 2.700000	 30.00000	 -30.00000	 15.20000	 0.001000
GW 161 	 25	 30.00000	 -30.00000	 0.350000	 30.01350	 -32.50000	 2.700000	 0.001000
GW 162 	 50	 30.01350	 -32.50000	 2.700000	 30.00000	 -30.00000	 15.20000	 0.001000
GW 163 	 25	 30.00000	 -30.00000	 0.350000	 27.77730	 -31.77980	 2.700000	 0.001000
GW 164 	 50	 27.77730	 -31.77980	 2.700000	 30.00000	 -30.00000	 15.20000	 0.001000
GW 165 	 25	 30.00000	 -30.00000	 0.350000	 27.50000	 -30.01350	 2.700000	 0.001000
GW 166 	 50	 27.50000	 -30.01350	 2.700000	 30.00000	 -30.00000	 15.20000	 0.001000
GW 167 	 25	 30.00000	 -30.00000	 0.350000	 27.75570	 -27.77980	 2.700000	 0.001000
GW 168 	 50	 27.75570	 -27.77980	 2.700000	 30.00000	 -30.00000	 15.20000	 0.001000
GW 169 	 25	 30.00000	 -30.00000	 0.350000	 29.98650	 -27.50000	 2.700000	 0.001000
GW 170 	 50	 29.98650	 -27.50000	 2.700000	 30.00000	 -30.00000	 15.20000	 0.001000
GW 171 	 25	 30.00000	 -30.00000	 0.350000	 31.75570	 -27.75830	 2.700000	 0.001000
GW 172 	 50	 31.75570	 -27.75830	 2.700000	 30.00000	 -30.00000	 15.20000	 0.001000
GW 173 	 25	 30.00000	 -30.00000	 0.350000	 32.50000	 -29.98650	 2.700000	 0.001000
GW 174 	 50	 32.50000	 -29.98650	 2.700000	 30.00000	 -30.00000	 15.20000	 0.001000
GW 175 	 3 	 30.00000	 -30.00000	 0.200000	 30.00000	 -30.00000	 0.350000	 0.001000
GW 176 	 4 	 30.00000	 -30.00000	 0.200000	 30.20000	 -29.99890	 0.200000	 0.001000
GW 177 	 50	 30.20000	 -29.99890	 0.200000	 44.99980	 -29.91900	 0.200000	 0.001000
GW 178 	 4 	 30.00000	 -30.00000	 0.200000	 30.19050	 -30.06080	 0.200000	 0.001000
GW 179 	 50	 30.19050	 -30.06080	 0.200000	 44.29070	 -34.55820	 0.200000	 0.001000
GW 180 	 4 	 30.00000	 -30.00000	 0.200000	 30.16240	 -30.11670	 0.200000	 0.001000
GW 181 	 50	 30.16240	 -30.11670	 0.200000	 42.18270	 -38.75110	 0.200000	 0.001000
GW 182 	 4 	 30.00000	 -30.00000	 0.200000	 30.11840	 -30.16120	 0.200000	 0.001000
GW 183 	 50	 30.11840	 -30.16120	 0.200000	 41.88210	 -42.07130	 0.200000	 0.001000
GW 184 	 4 	 30.00000	 -30.00000	 0.200000	 30.06280	 -30.18990	 0.200000	 0.001000
GW 185 	 50	 30.06280	 -30.18990	 0.200000	 34.71220	 -44.24060	 0.200000	 0.001000
GW 186 	 4 	 30.00000	 -30.00000	 0.200000	 30.00110	 -30.20000	 0.200000	 0.001000
GW 187 	 50	 30.00110	 -30.20000	 0.200000	 30.08100	 -44.99980	 0.200000	 0.001000
GW 188 	 25	 -30.00000	 0.000000	 0.350000	 -32.50000	0.013495	 2.700000	 0.001000
GW 189 	 50	 -32.50000	0.013495	 2.700000	 -30.00000	 0.000000	 15.20000	 0.001000
GW 190 	 25	 -30.00000	 0.000000	 0.350000	 -31.77730	 1.758200	 2.700000	 0.001000
GW 191 	 50	 -31.77730	 1.758200	 2.700000	 -30.00000	 0.000000	 15.20000	 0.001000
GW 192 	 25	 -30.00000	 0.000000	 0.350000	 -29.68680	 2.830160	 2.700000	 0.001000
GW 193 	 50	 -29.68680	 2.830160	 2.700000	 -30.00000	 0.000000	 15.20000	 0.001000
GW 194 	 25	 -30.00000	 0.000000	 0.350000	 -28.24180	 1.777280	 2.700000	 0.001000
GW 195 	 50	 -28.24180	 1.777280	 2.700000	 -30.00000	 0.000000	 15.20000	 0.001000
GW 196 	 25	 -30.00000	 0.000000	 0.350000	 -26.84320	0.017041	 2.700000	 0.001000
GW 197 	 50	 -26.84320	0.017041	 2.700000	 -30.00000	 0.000000	 15.20000	 0.001000
GW 198 	 25	 -30.00000	 0.000000	 0.350000	 -28.22270	 -1.758200	 2.700000	 0.001000
GW 199 	 50	 -28.22270	 -1.758200	 2.700000	 -30.00000	 0.000000	 15.20000	 0.001000
GW 200 	 25	 -30.00000	 0.000000	 0.350000	 -29.65630	 -2.826610	 2.700000	 0.001000
GW 201 	 50	 -29.65630	 -2.826610	 2.700000	 -30.00000	 0.000000	 15.20000	 0.001000
GW 202 	 25	 -30.00000	 0.000000	 0.350000	 -31.75820	 -1.777280	 2.700000	 0.001000
GW 203 	 50	 -31.75820	 -1.777280	 2.700000	 -30.00000	 0.000000	 15.20000	 0.001000
GW 204 	 3 	 -30.00000	 0.000000	 0.200000	 -30.00000	 0.000000	 0.350000	 0.001000
GW 205 	 4 	 -30.00000	 0.000000	 0.200000	 -30.14070	0.142183	 0.200000	 0.001000
GW 206 	 50	 -30.14070	0.142183	 0.200000	 -40.54920	 -10.66370	 0.200000	 0.001000
GW 207 	 4 	 -30.00000	 0.000000	 0.200000	 -30.17770	0.091758	 0.200000	 0.001000
GW 208 	 50	 -30.17770	0.091758	 0.200000	 -43.32810	 -6.881910	 0.200000	 0.001000
GW 209 	 4 	 -30.00000	 0.000000	 0.200000	 -30.19740	0.032352	 0.200000	 0.001000
GW 210 	 50	 -30.19740	0.032352	 0.200000	 -44.80240	 -2.426460	 0.200000	 0.001000
GW 211 	 4 	 -30.00000	 0.000000	 0.200000	 -30.19770	0.030219	 0.200000	 0.001000
GW 212 	 50	 -30.19770	0.030219	 0.200000	 -46.93760	0.133767	 0.200000	 0.001000
GW 213 	 4 	 -30.00000	 0.000000	 0.200000	 -30.17870	0.089834	 0.200000	 0.001000
GW 214 	 50	 -30.17870	0.089834	 0.200000	 -43.40170	 6.737610	 0.200000	 0.001000
GW 215 	 4 	 -30.00000	 0.000000	 0.200000	 -30.14220	0.140656	 0.200000	 0.001000
GW 216 	 50	 -30.14220	0.140656	 0.200000	 -40.66370	 10.54920	 0.200000	 0.001000
GW 217 	 25	 0.000000	 0.000000	 0.350000	 2.499960	0.013495	 2.700000	 0.001000
GW 218 	 50	 2.499960	0.013495	 2.700000	 0.000000	 0.000000	 15.20000	 0.001000
GW 219 	 25	 0.000000	 0.000000	 0.350000	 1.777280	 -1.758200	 2.700000	 0.001000
GW 220 	 50	 1.777280	 -1.758200	 2.700000	 0.000000	 0.000000	 15.20000	 0.001000
GW 221 	 25	 0.000000	 0.000000	 0.350000	0.313154	 -2.830160	 2.700000	 0.001000
GW 222 	 50	0.313154	 -2.830160	 2.700000	 0.000000	 0.000000	 15.20000	 0.001000
GW 223 	 25	 0.000000	 0.000000	 0.350000	 -1.758200	 -1.777280	 2.700000	 0.001000
GW 224 	 50	 -1.758200	 -1.777280	 2.700000	 0.000000	 0.000000	 15.20000	 0.001000
GW 225 	 25	 0.000000	 0.000000	 0.350000	 -3.156810	0.017041	 2.700000	 0.001000
GW 226 	 50	 -3.156810	0.017041	 2.700000	 0.000000	 0.000000	 15.20000	 0.001000
GW 227 	 25	 0.000000	 0.000000	 0.350000	 -1.777280	 1.758200	 2.700000	 0.001000
GW 228 	 50	 -1.777280	 1.758200	 2.700000	 0.000000	 0.000000	 15.20000	 0.001000
GW 229 	 25	 0.000000	 0.000000	 0.350000	0.343691	 2.826610	 2.700000	 0.001000
GW 230 	 50	0.343691	 2.826610	 2.700000	 0.000000	 0.000000	 15.20000	 0.001000
GW 231 	 25	 0.000000	 0.000000	 0.350000	 1.758200	 1.777280	 2.700000	 0.001000
GW 232 	 50	 1.758200	 1.777280	 2.700000	 0.000000	 0.000000	 15.20000	 0.001000
GW 233 	 3 	 0.000000	 0.000000	 0.200000	 0.000000	 0.000000	 0.350000	 0.001000
GW 234 	 4 	 0.000000	 0.000000	 0.200000	0.140656	0.142183	 0.200000	 0.001000
GW 235 	 50	0.140656	0.142183	 0.200000	 10.54920	 10.66370	 0.200000	 0.001000
GW 236 	 4 	 0.000000	 0.000000	 0.200000	0.177708	0.091758	 0.200000	 0.001000
GW 237 	 50	0.177708	0.091758	 0.200000	 13.32810	 6.881910	 0.200000	 0.001000
GW 238 	 4 	 0.000000	 0.000000	 0.200000	0.197366	0.032352	 0.200000	 0.001000
GW 239 	 50	0.197366	0.032352	 0.200000	 14.80240	 2.426460	 0.200000	 0.001000
GW 240 	 4 	 0.000000	 0.000000	 0.200000	0.197703	0.030219	 0.200000	 0.001000
GW 241 	 50	0.197703	0.030219	 0.200000	 16.93760	0.133767	 0.200000	 0.001000
GW 242 	 4 	 0.000000	 0.000000	 0.200000	0.178688	0.089834	 0.200000	 0.001000
GW 243 	 50	0.178688	0.089834	 0.200000	 13.40170	 -6.737610	 0.200000	 0.001000
GW 244 	 4 	 0.000000	 0.000000	 0.200000	0.142183	0.140656	 0.200000	 0.001000
GW 245 	 50	0.142183	0.140656	 0.200000	 10.66370	 -10.54920	 0.200000	 0.001000
GW 246 	 25	 30.00000	 0.000000	 0.350000	 32.50000	0.013495	 2.700000	 0.001000
GW 247 	 50	 32.50000	0.013495	 2.700000	 30.00000	 0.000000	 15.20000	 0.001000
GW 248 	 25	 30.00000	 0.000000	 0.350000	 31.77730	 -1.758200	 2.700000	 0.001000
GW 249 	 50	 31.77730	 -1.758200	 2.700000	 30.00000	 0.000000	 15.20000	 0.001000
GW 250 	 25	 30.00000	 0.000000	 0.350000	 29.68680	 -2.830160	 2.700000	 0.001000
GW 251 	 50	 29.68680	 -2.830160	 2.700000	 30.00000	 0.000000	 15.20000	 0.001000
GW 252 	 25	 30.00000	 0.000000	 0.350000	 28.24180	 -1.777280	 2.700000	 0.001000
GW 253 	 50	 28.24180	 -1.777280	 2.700000	 30.00000	 0.000000	 15.20000	 0.001000
GW 254 	 25	 30.00000	 0.000000	 0.350000	 26.84320	0.017041	 2.700000	 0.001000
GW 255 	 50	 26.84320	0.017041	 2.700000	 30.00000	 0.000000	 15.20000	 0.001000
GW 256 	 25	 30.00000	 0.000000	 0.350000	 28.22270	 1.758200	 2.700000	 0.001000
GW 257 	 50	 28.22270	 1.758200	 2.700000	 30.00000	 0.000000	 15.20000	 0.001000
GW 258 	 25	 30.00000	 0.000000	 0.350000	 29.65630	 2.826610	 2.700000	 0.001000
GW 259 	 50	 29.65630	 2.826610	 2.700000	 30.00000	 0.000000	 15.20000	 0.001000
GW 260 	 25	 30.00000	 0.000000	 0.350000	 31.75820	 1.777280	 2.700000	 0.001000
GW 261 	 50	 31.75820	 1.777280	 2.700000	 30.00000	 0.000000	 15.20000	 0.001000
GW 262 	 3 	 30.00000	 0.000000	 0.200000	 30.00000	 0.000000	 0.350000	 0.001000
GW 263 	 4 	 30.00000	 0.000000	 0.200000	 30.14070	0.142183	 0.200000	 0.001000
GW 264 	 50	 30.14070	0.142183	 0.200000	 40.54920	 10.66370	 0.200000	 0.001000
GW 265 	 4 	 30.00000	 0.000000	 0.200000	 30.17770	0.091758	 0.200000	 0.001000
GW 266 	 50	 30.17770	0.091758	 0.200000	 43.32810	 6.881910	 0.200000	 0.001000
GW 267 	 4 	 30.00000	 0.000000	 0.200000	 30.19740	0.032352	 0.200000	 0.001000
GW 268 	 50	 30.19740	0.032352	 0.200000	 44.80240	 2.426460	 0.200000	 0.001000
GW 269 	 4 	 30.00000	 0.000000	 0.200000	 30.19770	0.030219	 0.200000	 0.001000
GW 270 	 50	 30.19770	0.030219	 0.200000	 46.93760	0.133767	 0.200000	 0.001000
GW 271 	 4 	 30.00000	 0.000000	 0.200000	 30.17870	0.089834	 0.200000	 0.001000
GW 272 	 50	 30.17870	0.089834	 0.200000	 43.40170	 -6.737610	 0.200000	 0.001000
GW 273 	 4 	 30.00000	 0.000000	 0.200000	 30.14220	0.140656	 0.200000	 0.001000
GW 274 	 50	 30.14220	0.140656	 0.200000	 40.66370	 -10.54920	 0.200000	 0.001000
GW 275 	 25	 -30.00000	 30.00000	 0.350000	 -31.77730	 31.75820	 2.700000	 0.001000
GW 276 	 50	 -31.77730	 31.75820	 2.700000	 -30.00000	 30.00000	 15.20000	 0.001000
GW 277 	 25	 -30.00000	 30.00000	 0.350000	 -30.01350	 32.50000	 2.700000	 0.001000
GW 278 	 50	 -30.01350	 32.50000	 2.700000	 -30.00000	 30.00000	 15.20000	 0.001000
GW 279 	 25	 -30.00000	 30.00000	 0.350000	 -27.77730	 31.77980	 2.700000	 0.001000
GW 280 	 50	 -27.77730	 31.77980	 2.700000	 -30.00000	 30.00000	 15.20000	 0.001000
GW 281 	 25	 -30.00000	 30.00000	 0.350000	 -27.50000	 30.01350	 2.700000	 0.001000
GW 282 	 50	 -27.50000	 30.01350	 2.700000	 -30.00000	 30.00000	 15.20000	 0.001000
GW 283 	 25	 -30.00000	 30.00000	 0.350000	 -27.75570	 27.77980	 2.700000	 0.001000
GW 284 	 50	 -27.75570	 27.77980	 2.700000	 -30.00000	 30.00000	 15.20000	 0.001000
GW 285 	 25	 -30.00000	 30.00000	 0.350000	 -29.98650	 27.50000	 2.700000	 0.001000
GW 286 	 50	 -29.98650	 27.50000	 2.700000	 -30.00000	 30.00000	 15.20000	 0.001000
GW 287 	 25	 -30.00000	 30.00000	 0.350000	 -31.75570	 27.75830	 2.700000	 0.001000
GW 288 	 50	 -31.75570	 27.75830	 2.700000	 -30.00000	 30.00000	 15.20000	 0.001000
GW 289 	 25	 -30.00000	 30.00000	 0.350000	 -32.50000	 29.98650	 2.700000	 0.001000
GW 290 	 50	 -32.50000	 29.98650	 2.700000	 -30.00000	 30.00000	 15.20000	 0.001000
GW 291 	 3 	 -30.00000	 30.00000	 0.200000	 -30.00000	 30.00000	 0.350000	 0.001000
GW 292 	 4 	 -30.00000	 30.00000	 0.200000	 -30.20000	 29.99890	 0.200000	 0.001000
GW 293 	 50	 -30.20000	 29.99890	 0.200000	 -44.99980	 29.91900	 0.200000	 0.001000
GW 294 	 4 	 -30.00000	 30.00000	 0.200000	 -30.19050	 30.06080	 0.200000	 0.001000
GW 295 	 50	 -30.19050	 30.06080	 0.200000	 -44.29070	 34.55820	 0.200000	 0.001000
GW 296 	 4 	 -30.00000	 30.00000	 0.200000	 -30.16240	 30.11670	 0.200000	 0.001000
GW 297 	 50	 -30.16240	 30.11670	 0.200000	 -42.18270	 38.75110	 0.200000	 0.001000
GW 298 	 4 	 -30.00000	 30.00000	 0.200000	 -30.11840	 30.16120	 0.200000	 0.001000
GW 299 	 50	 -30.11840	 30.16120	 0.200000	 -41.88210	 42.07130	 0.200000	 0.001000
GW 300 	 4 	 -30.00000	 30.00000	 0.200000	 -30.06280	 30.18990	 0.200000	 0.001000
GW 301 	 50	 -30.06280	 30.18990	 0.200000	 -34.71220	 44.24060	 0.200000	 0.001000
GW 302 	 4 	 -30.00000	 30.00000	 0.200000	 -30.00110	 30.20000	 0.200000	 0.001000
GW 303 	 50	 -30.00110	 30.20000	 0.200000	 -30.08100	 44.99980	 0.200000	 0.001000
GW 304 	 25	 0.000000	 30.00000	 0.350000	0.013495	 32.50000	 2.700000	 0.001000
GW 305 	 50	0.013495	 32.50000	 2.700000	 0.000000	 30.00000	 15.20000	 0.001000
GW 306 	 25	 0.000000	 30.00000	 0.350000	 1.758200	 31.77730	 2.700000	 0.001000
GW 307 	 50	 1.758200	 31.77730	 2.700000	 0.000000	 30.00000	 15.20000	 0.001000
GW 308 	 25	 0.000000	 30.00000	 0.350000	 2.830160	 29.68680	 2.700000	 0.001000
GW 309 	 50	 2.830160	 29.68680	 2.700000	 0.000000	 30.00000	 15.20000	 0.001000
GW 310 	 25	 0.000000	 30.00000	 0.350000	 1.777280	 28.24180	 2.700000	 0.001000
GW 311 	 50	 1.777280	 28.24180	 2.700000	 0.000000	 30.00000	 15.20000	 0.001000
GW 312 	 25	 0.000000	 30.00000	 0.350000	0.017041	 26.84320	 2.700000	 0.001000
GW 313 	 50	0.017041	 26.84320	 2.700000	 0.000000	 30.00000	 15.20000	 0.001000
GW 314 	 25	 0.000000	 30.00000	 0.350000	 -1.758200	 28.22270	 2.700000	 0.001000
GW 315 	 50	 -1.758200	 28.22270	 2.700000	 0.000000	 30.00000	 15.20000	 0.001000
GW 316 	 25	 0.000000	 30.00000	 0.350000	 -2.826610	 29.65630	 2.700000	 0.001000
GW 317 	 50	 -2.826610	 29.65630	 2.700000	 0.000000	 30.00000	 15.20000	 0.001000
GW 318 	 25	 0.000000	 30.00000	 0.350000	 -1.777280	 31.75820	 2.700000	 0.001000
GW 319 	 50	 -1.777280	 31.75820	 2.700000	 0.000000	 30.00000	 15.20000	 0.001000
GW 320 	 3 	 0.000000	 30.00000	 0.200000	 0.000000	 30.00000	 0.350000	 0.001000
GW 321 	 4 	 0.000000	 30.00000	 0.200000	0.142183	 30.14070	 0.200000	 0.001000
GW 322 	 50	0.142183	 30.14070	 0.200000	 -10.66370	 40.54920	 0.200000	 0.001000
GW 323 	 4 	 0.000000	 30.00000	 0.200000	0.091758	 30.17770	 0.200000	 0.001000
GW 324 	 50	0.091758	 30.17770	 0.200000	 -6.881910	 43.32810	 0.200000	 0.001000
GW 325 	 4 	 0.000000	 30.00000	 0.200000	0.032352	 30.19740	 0.200000	 0.001000
GW 326 	 50	0.032352	 30.19740	 0.200000	 -2.426460	 44.80240	 0.200000	 0.001000
GW 327 	 4 	 0.000000	 30.00000	 0.200000	0.030219	 30.19770	 0.200000	 0.001000
GW 328 	 50	0.030219	 30.19770	 0.200000	0.133767	 46.93760	 0.200000	 0.001000
GW 329 	 4 	 0.000000	 30.00000	 0.200000	0.089834	 30.17870	 0.200000	 0.001000
GW 330 	 50	0.089834	 30.17870	 0.200000	 6.737610	 43.40170	 0.200000	 0.001000
GW 331 	 4 	 0.000000	 30.00000	 0.200000	0.140656	 30.14220	 0.200000	 0.001000
GW 332 	 50	0.140656	 30.14220	 0.200000	 10.54920	 40.66370	 0.200000	 0.001000
GW 333 	 25	 30.00000	 30.00000	 0.350000	 31.75820	 31.77730	 2.700000	 0.001000
GW 334 	 50	 31.75820	 31.77730	 2.700000	 30.00000	 30.00000	 15.20000	 0.001000
GW 335 	 25	 30.00000	 30.00000	 0.350000	 32.50000	 30.01350	 2.700000	 0.001000
GW 336 	 50	 32.50000	 30.01350	 2.700000	 30.00000	 30.00000	 15.20000	 0.001000
GW 337 	 25	 30.00000	 30.00000	 0.350000	 31.77980	 27.77730	 2.700000	 0.001000
GW 338 	 50	 31.77980	 27.77730	 2.700000	 30.00000	 30.00000	 15.20000	 0.001000
GW 339 	 25	 30.00000	 30.00000	 0.350000	 30.01350	 27.50000	 2.700000	 0.001000
GW 340 	 50	 30.01350	 27.50000	 2.700000	 30.00000	 30.00000	 15.20000	 0.001000
GW 341 	 25	 30.00000	 30.00000	 0.350000	 27.77980	 27.75570	 2.700000	 0.001000
GW 342 	 50	 27.77980	 27.75570	 2.700000	 30.00000	 30.00000	 15.20000	 0.001000
GW 343 	 25	 30.00000	 30.00000	 0.350000	 27.50000	 29.98650	 2.700000	 0.001000
GW 344 	 50	 27.50000	 29.98650	 2.700000	 30.00000	 30.00000	 15.20000	 0.001000
GW 345 	 25	 30.00000	 30.00000	 0.350000	 27.75830	 31.75570	 2.700000	 0.001000
GW 346 	 50	 27.75830	 31.75570	 2.700000	 30.00000	 30.00000	 15.20000	 0.001000
GW 347 	 25	 30.00000	 30.00000	 0.350000	 29.98650	 32.50000	 2.700000	 0.001000
GW 348 	 50	 29.98650	 32.50000	 2.700000	 30.00000	 30.00000	 15.20000	 0.001000
GW 349 	 3 	 30.00000	 30.00000	 0.200000	 30.00000	 30.00000	 0.350000	 0.001000
GW 350 	 4 	 30.00000	 30.00000	 0.200000	 29.99890	 30.20000	 0.200000	 0.001000
GW 351 	 50	 29.99890	 30.20000	 0.200000	 29.91900	 44.99980	 0.200000	 0.001000
GW 352 	 4 	 30.00000	 30.00000	 0.200000	 30.06080	 30.19050	 0.200000	 0.001000
GW 353 	 50	 30.06080	 30.19050	 0.200000	 34.55820	 44.29070	 0.200000	 0.001000
GW 354 	 4 	 30.00000	 30.00000	 0.200000	 30.11670	 30.16240	 0.200000	 0.001000
GW 355 	 50	 30.11670	 30.16240	 0.200000	 38.75110	 42.18270	 0.200000	 0.001000
GW 356 	 4 	 30.00000	 30.00000	 0.200000	 30.16120	 30.11840	 0.200000	 0.001000
GW 357 	 50	 30.16120	 30.11840	 0.200000	 42.07130	 41.88210	 0.200000	 0.001000
GW 358 	 4 	 30.00000	 30.00000	 0.200000	 30.18990	 30.06280	 0.200000	 0.001000
GW 359 	 50	 30.18990	 30.06280	 0.200000	 44.24060	 34.71220	 0.200000	 0.001000
GW 360 	 4 	 30.00000	 30.00000	 0.200000	 30.20000	 30.00110	 0.200000	 0.001000
GW 361 	 50	 30.20000	 30.00110	 0.200000	 44.99980	 30.08100	 0.200000	 0.001000
GE 1 
GN  2  0  0  0  10.0  0.01 
FR  0  0  0  0   5.0 
EX  0 117  2  0    1.0000E+000    0.0000E+000 
EX  0 146  2  0    1.0000E+000    0.0000E+000 
EX  0 175  2  0    1.0000E+000    0.0000E+000 
EX  0 204  2  0    1.0000E+000    0.0000E+000 
EX  0 233  2  0    1.0000E+000    0.0000E+000 
EX  0 262  2  0    1.0000E+000    0.0000E+000 
EX  0 291  2  0    1.0000E+000    0.0000E+000 
EX  0 320  2  0    1.0000E+000    0.0000E+000 
EX  0 349  2  0    1.0000E+000    0.0000E+000 
PT -1
RP  0  19  72  1010 0.0 0.0 5.0 5.0
EN
