CM
CE
GW 101  25 -30.00000 -30.00000 0.350000 -31.76000 -31.78000 2.700000 0.001000
GW 102  50 -31.76000 -31.78000 2.700000 -30.00000 -30.00000 15.20000 0.001000
GW 103  25 -30.00000 -30.00000 0.350000 -32.50000 -30.01000 2.700000 0.001000
GW 104  50 -32.50000 -30.01000 2.700000 -30.00000 -30.00000 15.20000 0.001000
GW 105  25 -30.00000 -30.00000 0.350000 -31.78000 -27.78000 2.700000 0.001000
GW 106  50 -31.78000 -27.78000 2.700000 -30.00000 -30.00000 15.20000 0.001000
GW 107  25 -30.00000 -30.00000 0.350000 -30.01000 -27.50000 2.700000 0.001000
GW 108  50 -30.01000 -27.50000 2.700000 -30.00000 -30.00000 15.20000 0.001000
GW 109  25 -30.00000 -30.00000 0.350000 -27.78000 -27.76000 2.700000 0.001000
GW 110  50 -27.78000 -27.76000 2.700000 -30.00000 -30.00000 15.20000 0.001000
GW 111  25 -30.00000 -30.00000 0.350000 -27.50000 -29.99000 2.700000 0.001000
GW 112  50 -27.50000 -29.99000 2.700000 -30.00000 -30.00000 15.20000 0.001000
GW 113  25 -30.00000 -30.00000 0.350000 -27.76000 -31.76000 2.700000 0.001000
GW 114  50 -27.76000 -31.76000 2.700000 -30.00000 -30.00000 15.20000 0.001000
GW 115  25 -30.00000 -30.00000 0.350000 -29.99000 -32.50000 2.700000 0.001000
GW 116  50 -29.99000 -32.50000 2.700000 -30.00000 -30.00000 15.20000 0.001000
GW 117  3  -30.00000 -30.00000 0.200000 -30.00000 -30.00000 0.350000 0.001000
GW 118  4  -30.00000 -30.00000 0.200000 -30.00000 -30.20000 0.200000 0.001000
GW 119  50 -30.00000 -30.20000 0.200000 -29.92000 -45.00000 0.200000 0.001000
GW 120  4  -30.00000 -30.00000 0.200000 -30.06000 -30.19000 0.200000 0.001000
GW 121  50 -30.06000 -30.19000 0.200000 -34.56000 -44.29000 0.200000 0.001000
GW 122  4  -30.00000 -30.00000 0.200000 -30.12000 -30.16000 0.200000 0.001000
GW 123  50 -30.12000 -30.16000 0.200000 -38.75000 -42.18000 0.200000 0.001000
GW 124  4  -30.00000 -30.00000 0.200000 -30.16000 -30.12000 0.200000 0.001000
GW 125  50 -30.16000 -30.12000 0.200000 -42.07000 -41.88000 0.200000 0.001000
GW 126  4  -30.00000 -30.00000 0.200000 -30.19000 -30.06000 0.200000 0.001000
GW 127  50 -30.19000 -30.06000 0.200000 -44.24000 -34.71000 0.200000 0.001000
GW 128  4  -30.00000 -30.00000 0.200000 -30.20000 -30.00000 0.200000 0.001000
GW 129  50 -30.20000 -30.00000 0.200000 -45.00000 -30.08000 0.200000 0.001000
GW 130  25 -10.00000 -30.00000 0.350000 -10.78000 -32.38000 2.700000 0.001000
GW 131  50 -10.78000 -32.38000 2.700000 -10.00000 -30.00000 15.20000 0.001000
GW 132  25 -10.00000 -30.00000 0.350000 -12.23000 -31.13000 2.700000 0.001000
GW 133  50 -12.23000 -31.13000 2.700000 -10.00000 -30.00000 15.20000 0.001000
GW 134  25 -10.00000 -30.00000 0.350000 -12.59000 -28.81000 2.700000 0.001000
GW 135  50 -12.59000 -28.81000 2.700000 -10.00000 -30.00000 15.20000 0.001000
GW 136  25 -10.00000 -30.00000 0.350000 -11.13000 -27.77000 2.700000 0.001000
GW 137  50 -11.13000 -27.77000 2.700000 -10.00000 -30.00000 15.20000 0.001000
GW 138  25 -10.00000 -30.00000 0.350000 -9.020000 -27.00000 2.700000 0.001000
GW 139  50 -9.020000 -27.00000 2.700000 -10.00000 -30.00000 15.20000 0.001000
GW 140  25 -10.00000 -30.00000 0.350000 -7.770000 -28.87000 2.700000 0.001000
GW 141  50 -7.770000 -28.87000 2.700000 -10.00000 -30.00000 15.20000 0.001000
GW 142  25 -10.00000 -30.00000 0.350000 -7.210000 -30.57000 2.700000 0.001000
GW 143  50 -7.210000 -30.57000 2.700000 -10.00000 -30.00000 15.20000 0.001000
GW 144  25 -10.00000 -30.00000 0.350000 -8.870000 -32.23000 2.700000 0.001000
GW 145  50 -8.870000 -32.23000 2.700000 -10.00000 -30.00000 15.20000 0.001000
GW 146  3  -10.00000 -30.00000 0.200000 -10.00000 -30.00000 0.350000 0.001000
GW 147  4  -10.00000 -30.00000 0.200000 -9.910000 -30.18000 0.200000 0.001000
GW 148  50 -9.910000 -30.18000 0.200000 -3.220000 -43.38000 0.200000 0.001000
GW 149  4  -10.00000 -30.00000 0.200000 -9.970000 -30.20000 0.200000 0.001000
GW 150  50 -9.970000 -30.20000 0.200000 -7.690000 -44.82000 0.200000 0.001000
GW 151  4  -10.00000 -30.00000 0.200000 -10.03000 -30.20000 0.200000 0.001000
GW 152  50 -10.03000 -30.20000 0.200000 -12.38000 -44.81000 0.200000 0.001000
GW 153  4  -10.00000 -30.00000 0.200000 -10.09000 -30.18000 0.200000 0.001000
GW 154  50 -10.09000 -30.18000 0.200000 -15.48000 -46.03000 0.200000 0.001000
GW 155  4  -10.00000 -30.00000 0.200000 -10.14000 -30.14000 0.200000 0.001000
GW 156  50 -10.14000 -30.14000 0.200000 -20.63000 -40.58000 0.200000 0.001000
GW 157  4  -10.00000 -30.00000 0.200000 -10.18000 -30.09000 0.200000 0.001000
GW 158  50 -10.18000 -30.09000 0.200000 -23.38000 -36.78000 0.200000 0.001000
GW 159  25 10.00000 -30.00000 0.350000 10.80000 -32.37000 2.700000 0.001000
GW 160  50 10.80000 -32.37000 2.700000 10.00000 -30.00000 15.20000 0.001000
GW 161  25 10.00000 -30.00000 0.350000 8.890000 -32.24000 2.700000 0.001000
GW 162  50 8.890000 -32.24000 2.700000 10.00000 -30.00000 15.20000 0.001000
GW 163  25 10.00000 -30.00000 0.350000 7.220000 -30.60000 2.700000 0.001000
GW 164  50 7.220000 -30.60000 2.700000 10.00000 -30.00000 15.20000 0.001000
GW 165  25 10.00000 -30.00000 0.350000 7.760000 -28.89000 2.700000 0.001000
GW 166  50 7.760000 -28.89000 2.700000 10.00000 -30.00000 15.20000 0.001000
GW 167  25 10.00000 -30.00000 0.350000 8.990000 -27.01000 2.700000 0.001000
GW 168  50 8.990000 -27.01000 2.700000 10.00000 -30.00000 15.20000 0.001000
GW 169  25 10.00000 -30.00000 0.350000 11.11000 -27.76000 2.700000 0.001000
GW 170  50 11.11000 -27.76000 2.700000 10.00000 -30.00000 15.20000 0.001000
GW 171  25 10.00000 -30.00000 0.350000 12.57000 -28.78000 2.700000 0.001000
GW 172  50 12.57000 -28.78000 2.700000 10.00000 -30.00000 15.20000 0.001000
GW 173  25 10.00000 -30.00000 0.350000 12.24000 -31.11000 2.700000 0.001000
GW 174  50 12.24000 -31.11000 2.700000 10.00000 -30.00000 15.20000 0.001000
GW 175  3  10.00000 -30.00000 0.200000 10.00000 -30.00000 0.350000 0.001000
GW 176  4  10.00000 -30.00000 0.200000 10.18000 -30.09000 0.200000 0.001000
GW 177  50 10.18000 -30.09000 0.200000 23.45000 -36.64000 0.200000 0.001000
GW 178  4  10.00000 -30.00000 0.200000 10.14000 -30.14000 0.200000 0.001000
GW 179  50 10.14000 -30.14000 0.200000 20.74000 -40.47000 0.200000 0.001000
GW 180  4  10.00000 -30.00000 0.200000 10.09000 -30.18000 0.200000 0.001000
GW 181  50 10.09000 -30.18000 0.200000 16.98000 -43.28000 0.200000 0.001000
GW 182  4  10.00000 -30.00000 0.200000 10.03000 -30.20000 0.200000 0.001000
GW 183  50 10.03000 -30.20000 0.200000 15.23000 -46.11000 0.200000 0.001000
GW 184  4  10.00000 -30.00000 0.200000 9.970000 -30.20000 0.200000 0.001000
GW 185  50 9.970000 -30.20000 0.200000 7.850000 -44.84000 0.200000 0.001000
GW 186  4  10.00000 -30.00000 0.200000 9.910000 -30.18000 0.200000 0.001000
GW 187  50 9.910000 -30.18000 0.200000 3.360000 -43.45000 0.200000 0.001000
GW 188  25 30.00000 -30.00000 0.350000 31.78000 -31.76000 2.700000 0.001000
GW 189  50 31.78000 -31.76000 2.700000 30.00000 -30.00000 15.20000 0.001000
GW 190  25 30.00000 -30.00000 0.350000 30.01000 -32.50000 2.700000 0.001000
GW 191  50 30.01000 -32.50000 2.700000 30.00000 -30.00000 15.20000 0.001000
GW 192  25 30.00000 -30.00000 0.350000 27.78000 -31.78000 2.700000 0.001000
GW 193  50 27.78000 -31.78000 2.700000 30.00000 -30.00000 15.20000 0.001000
GW 194  25 30.00000 -30.00000 0.350000 27.50000 -30.01000 2.700000 0.001000
GW 195  50 27.50000 -30.01000 2.700000 30.00000 -30.00000 15.20000 0.001000
GW 196  25 30.00000 -30.00000 0.350000 27.76000 -27.78000 2.700000 0.001000
GW 197  50 27.76000 -27.78000 2.700000 30.00000 -30.00000 15.20000 0.001000
GW 198  25 30.00000 -30.00000 0.350000 29.99000 -27.50000 2.700000 0.001000
GW 199  50 29.99000 -27.50000 2.700000 30.00000 -30.00000 15.20000 0.001000
GW 200  25 30.00000 -30.00000 0.350000 31.76000 -27.76000 2.700000 0.001000
GW 201  50 31.76000 -27.76000 2.700000 30.00000 -30.00000 15.20000 0.001000
GW 202  25 30.00000 -30.00000 0.350000 32.50000 -29.99000 2.700000 0.001000
GW 203  50 32.50000 -29.99000 2.700000 30.00000 -30.00000 15.20000 0.001000
GW 204  3  30.00000 -30.00000 0.200000 30.00000 -30.00000 0.350000 0.001000
GW 205  4  30.00000 -30.00000 0.200000 30.20000 -30.00000 0.200000 0.001000
GW 206  50 30.20000 -30.00000 0.200000 45.00000 -29.92000 0.200000 0.001000
GW 207  4  30.00000 -30.00000 0.200000 30.19000 -30.06000 0.200000 0.001000
GW 208  50 30.19000 -30.06000 0.200000 44.29000 -34.56000 0.200000 0.001000
GW 209  4  30.00000 -30.00000 0.200000 30.16000 -30.12000 0.200000 0.001000
GW 210  50 30.16000 -30.12000 0.200000 42.18000 -38.75000 0.200000 0.001000
GW 211  4  30.00000 -30.00000 0.200000 30.12000 -30.16000 0.200000 0.001000
GW 212  50 30.12000 -30.16000 0.200000 41.88000 -42.07000 0.200000 0.001000
GW 213  4  30.00000 -30.00000 0.200000 30.06000 -30.19000 0.200000 0.001000
GW 214  50 30.06000 -30.19000 0.200000 34.71000 -44.24000 0.200000 0.001000
GW 215  4  30.00000 -30.00000 0.200000 30.00000 -30.20000 0.200000 0.001000
GW 216  50 30.00000 -30.20000 0.200000 30.08000 -45.00000 0.200000 0.001000
GW 217  25 -30.00000 -10.00000 0.350000 -32.37000 -10.80000 2.700000 0.001000
GW 218  50 -32.37000 -10.80000 2.700000 -30.00000 -10.00000 15.20000 0.001000
GW 219  25 -30.00000 -10.00000 0.350000 -32.24000 -8.890000 2.700000 0.001000
GW 220  50 -32.24000 -8.890000 2.700000 -30.00000 -10.00000 15.20000 0.001000
GW 221  25 -30.00000 -10.00000 0.350000 -30.60000 -7.220000 2.700000 0.001000
GW 222  50 -30.60000 -7.220000 2.700000 -30.00000 -10.00000 15.20000 0.001000
GW 223  25 -30.00000 -10.00000 0.350000 -28.89000 -7.760000 2.700000 0.001000
GW 224  50 -28.89000 -7.760000 2.700000 -30.00000 -10.00000 15.20000 0.001000
GW 225  25 -30.00000 -10.00000 0.350000 -27.01000 -8.990000 2.700000 0.001000
GW 226  50 -27.01000 -8.990000 2.700000 -30.00000 -10.00000 15.20000 0.001000
GW 227  25 -30.00000 -10.00000 0.350000 -27.76000 -11.11000 2.700000 0.001000
GW 228  50 -27.76000 -11.11000 2.700000 -30.00000 -10.00000 15.20000 0.001000
GW 229  25 -30.00000 -10.00000 0.350000 -28.78000 -12.57000 2.700000 0.001000
GW 230  50 -28.78000 -12.57000 2.700000 -30.00000 -10.00000 15.20000 0.001000
GW 231  25 -30.00000 -10.00000 0.350000 -31.11000 -12.24000 2.700000 0.001000
GW 232  50 -31.11000 -12.24000 2.700000 -30.00000 -10.00000 15.20000 0.001000
GW 233  3  -30.00000 -10.00000 0.200000 -30.00000 -10.00000 0.350000 0.001000
GW 234  4  -30.00000 -10.00000 0.200000 -30.09000 -10.18000 0.200000 0.001000
GW 235  50 -30.09000 -10.18000 0.200000 -36.64000 -23.45000 0.200000 0.001000
GW 236  4  -30.00000 -10.00000 0.200000 -30.14000 -10.14000 0.200000 0.001000
GW 237  50 -30.14000 -10.14000 0.200000 -40.47000 -20.74000 0.200000 0.001000
GW 238  4  -30.00000 -10.00000 0.200000 -30.18000 -10.09000 0.200000 0.001000
GW 239  50 -30.18000 -10.09000 0.200000 -43.28000 -16.98000 0.200000 0.001000
GW 240  4  -30.00000 -10.00000 0.200000 -30.20000 -10.03000 0.200000 0.001000
GW 241  50 -30.20000 -10.03000 0.200000 -46.11000 -15.23000 0.200000 0.001000
GW 242  4  -30.00000 -10.00000 0.200000 -30.20000 -9.970000 0.200000 0.001000
GW 243  50 -30.20000 -9.970000 0.200000 -44.84000 -7.850000 0.200000 0.001000
GW 244  4  -30.00000 -10.00000 0.200000 -30.18000 -9.910000 0.200000 0.001000
GW 245  50 -30.18000 -9.910000 0.200000 -43.45000 -3.360000 0.200000 0.001000
GW 246  25 -10.00000 -10.00000 0.350000 -11.76000 -11.78000 2.700000 0.001000
GW 247  50 -11.76000 -11.78000 2.700000 -10.00000 -10.00000 15.20000 0.001000
GW 248  25 -10.00000 -10.00000 0.350000 -12.50000 -10.01000 2.700000 0.001000
GW 249  50 -12.50000 -10.01000 2.700000 -10.00000 -10.00000 15.20000 0.001000
GW 250  25 -10.00000 -10.00000 0.350000 -11.78000 -7.780000 2.700000 0.001000
GW 251  50 -11.78000 -7.780000 2.700000 -10.00000 -10.00000 15.20000 0.001000
GW 252  25 -10.00000 -10.00000 0.350000 -10.01000 -7.500000 2.700000 0.001000
GW 253  50 -10.01000 -7.500000 2.700000 -10.00000 -10.00000 15.20000 0.001000
GW 254  25 -10.00000 -10.00000 0.350000 -7.780000 -7.760000 2.700000 0.001000
GW 255  50 -7.780000 -7.760000 2.700000 -10.00000 -10.00000 15.20000 0.001000
GW 256  25 -10.00000 -10.00000 0.350000 -7.500000 -9.990000 2.700000 0.001000
GW 257  50 -7.500000 -9.990000 2.700000 -10.00000 -10.00000 15.20000 0.001000
GW 258  25 -10.00000 -10.00000 0.350000 -7.760000 -11.76000 2.700000 0.001000
GW 259  50 -7.760000 -11.76000 2.700000 -10.00000 -10.00000 15.20000 0.001000
GW 260  25 -10.00000 -10.00000 0.350000 -9.990000 -12.50000 2.700000 0.001000
GW 261  50 -9.990000 -12.50000 2.700000 -10.00000 -10.00000 15.20000 0.001000
GW 262  3  -10.00000 -10.00000 0.200000 -10.00000 -10.00000 0.350000 0.001000
GW 263  4  -10.00000 -10.00000 0.200000 -10.00000 -10.20000 0.200000 0.001000
GW 264  50 -10.00000 -10.20000 0.200000 -9.920000 -25.00000 0.200000 0.001000
GW 265  4  -10.00000 -10.00000 0.200000 -10.06000 -10.19000 0.200000 0.001000
GW 266  50 -10.06000 -10.19000 0.200000 -14.56000 -24.29000 0.200000 0.001000
GW 267  4  -10.00000 -10.00000 0.200000 -10.12000 -10.16000 0.200000 0.001000
GW 268  50 -10.12000 -10.16000 0.200000 -18.75000 -22.18000 0.200000 0.001000
GW 269  4  -10.00000 -10.00000 0.200000 -10.16000 -10.12000 0.200000 0.001000
GW 270  50 -10.16000 -10.12000 0.200000 -22.07000 -21.88000 0.200000 0.001000
GW 271  4  -10.00000 -10.00000 0.200000 -10.19000 -10.06000 0.200000 0.001000
GW 272  50 -10.19000 -10.06000 0.200000 -24.24000 -14.71000 0.200000 0.001000
GW 273  4  -10.00000 -10.00000 0.200000 -10.20000 -10.00000 0.200000 0.001000
GW 274  50 -10.20000 -10.00000 0.200000 -25.00000 -10.08000 0.200000 0.001000
GW 275  25 10.00000 -10.00000 0.350000 11.78000 -11.76000 2.700000 0.001000
GW 276  50 11.78000 -11.76000 2.700000 10.00000 -10.00000 15.20000 0.001000
GW 277  25 10.00000 -10.00000 0.350000 10.01000 -12.50000 2.700000 0.001000
GW 278  50 10.01000 -12.50000 2.700000 10.00000 -10.00000 15.20000 0.001000
GW 279  25 10.00000 -10.00000 0.350000 7.780000 -11.78000 2.700000 0.001000
GW 280  50 7.780000 -11.78000 2.700000 10.00000 -10.00000 15.20000 0.001000
GW 281  25 10.00000 -10.00000 0.350000 7.500000 -10.01000 2.700000 0.001000
GW 282  50 7.500000 -10.01000 2.700000 10.00000 -10.00000 15.20000 0.001000
GW 283  25 10.00000 -10.00000 0.350000 7.760000 -7.780000 2.700000 0.001000
GW 284  50 7.760000 -7.780000 2.700000 10.00000 -10.00000 15.20000 0.001000
GW 285  25 10.00000 -10.00000 0.350000 9.990000 -7.500000 2.700000 0.001000
GW 286  50 9.990000 -7.500000 2.700000 10.00000 -10.00000 15.20000 0.001000
GW 287  25 10.00000 -10.00000 0.350000 11.76000 -7.760000 2.700000 0.001000
GW 288  50 11.76000 -7.760000 2.700000 10.00000 -10.00000 15.20000 0.001000
GW 289  25 10.00000 -10.00000 0.350000 12.50000 -9.990000 2.700000 0.001000
GW 290  50 12.50000 -9.990000 2.700000 10.00000 -10.00000 15.20000 0.001000
GW 291  3  10.00000 -10.00000 0.200000 10.00000 -10.00000 0.350000 0.001000
GW 292  4  10.00000 -10.00000 0.200000 10.20000 -10.00000 0.200000 0.001000
GW 293  50 10.20000 -10.00000 0.200000 25.00000 -9.920000 0.200000 0.001000
GW 294  4  10.00000 -10.00000 0.200000 10.19000 -10.06000 0.200000 0.001000
GW 295  50 10.19000 -10.06000 0.200000 24.29000 -14.56000 0.200000 0.001000
GW 296  4  10.00000 -10.00000 0.200000 10.16000 -10.12000 0.200000 0.001000
GW 297  50 10.16000 -10.12000 0.200000 22.18000 -18.75000 0.200000 0.001000
GW 298  4  10.00000 -10.00000 0.200000 10.12000 -10.16000 0.200000 0.001000
GW 299  50 10.12000 -10.16000 0.200000 21.88000 -22.07000 0.200000 0.001000
GW 300  4  10.00000 -10.00000 0.200000 10.06000 -10.19000 0.200000 0.001000
GW 301  50 10.06000 -10.19000 0.200000 14.71000 -24.24000 0.200000 0.001000
GW 302  4  10.00000 -10.00000 0.200000 10.00000 -10.20000 0.200000 0.001000
GW 303  50 10.00000 -10.20000 0.200000 10.08000 -25.00000 0.200000 0.001000
GW 304  25 30.00000 -10.00000 0.350000 32.38000 -10.78000 2.700000 0.001000
GW 305  50 32.38000 -10.78000 2.700000 30.00000 -10.00000 15.20000 0.001000
GW 306  25 30.00000 -10.00000 0.350000 31.13000 -12.23000 2.700000 0.001000
GW 307  50 31.13000 -12.23000 2.700000 30.00000 -10.00000 15.20000 0.001000
GW 308  25 30.00000 -10.00000 0.350000 28.81000 -12.59000 2.700000 0.001000
GW 309  50 28.81000 -12.59000 2.700000 30.00000 -10.00000 15.20000 0.001000
GW 310  25 30.00000 -10.00000 0.350000 27.77000 -11.13000 2.700000 0.001000
GW 311  50 27.77000 -11.13000 2.700000 30.00000 -10.00000 15.20000 0.001000
GW 312  25 30.00000 -10.00000 0.350000 27.00000 -9.020000 2.700000 0.001000
GW 313  50 27.00000 -9.020000 2.700000 30.00000 -10.00000 15.20000 0.001000
GW 314  25 30.00000 -10.00000 0.350000 28.87000 -7.770000 2.700000 0.001000
GW 315  50 28.87000 -7.770000 2.700000 30.00000 -10.00000 15.20000 0.001000
GW 316  25 30.00000 -10.00000 0.350000 30.57000 -7.210000 2.700000 0.001000
GW 317  50 30.57000 -7.210000 2.700000 30.00000 -10.00000 15.20000 0.001000
GW 318  25 30.00000 -10.00000 0.350000 32.23000 -8.870000 2.700000 0.001000
GW 319  50 32.23000 -8.870000 2.700000 30.00000 -10.00000 15.20000 0.001000
GW 320  3  30.00000 -10.00000 0.200000 30.00000 -10.00000 0.350000 0.001000
GW 321  4  30.00000 -10.00000 0.200000 30.18000 -9.910000 0.200000 0.001000
GW 322  50 30.18000 -9.910000 0.200000 43.38000 -3.220000 0.200000 0.001000
GW 323  4  30.00000 -10.00000 0.200000 30.20000 -9.970000 0.200000 0.001000
GW 324  50 30.20000 -9.970000 0.200000 44.82000 -7.690000 0.200000 0.001000
GW 325  4  30.00000 -10.00000 0.200000 30.20000 -10.03000 0.200000 0.001000
GW 326  50 30.20000 -10.03000 0.200000 44.81000 -12.38000 0.200000 0.001000
GW 327  4  30.00000 -10.00000 0.200000 30.18000 -10.09000 0.200000 0.001000
GW 328  50 30.18000 -10.09000 0.200000 46.03000 -15.48000 0.200000 0.001000
GW 329  4  30.00000 -10.00000 0.200000 30.14000 -10.14000 0.200000 0.001000
GW 330  50 30.14000 -10.14000 0.200000 40.58000 -20.63000 0.200000 0.001000
GW 331  4  30.00000 -10.00000 0.200000 30.09000 -10.18000 0.200000 0.001000
GW 332  50 30.09000 -10.18000 0.200000 36.78000 -23.38000 0.200000 0.001000
GW 333  25 -30.00000 10.00000 0.350000 -32.38000 10.78000 2.700000 0.001000
GW 334  50 -32.38000 10.78000 2.700000 -30.00000 10.00000 15.20000 0.001000
GW 335  25 -30.00000 10.00000 0.350000 -31.13000 12.23000 2.700000 0.001000
GW 336  50 -31.13000 12.23000 2.700000 -30.00000 10.00000 15.20000 0.001000
GW 337  25 -30.00000 10.00000 0.350000 -28.81000 12.59000 2.700000 0.001000
GW 338  50 -28.81000 12.59000 2.700000 -30.00000 10.00000 15.20000 0.001000
GW 339  25 -30.00000 10.00000 0.350000 -27.77000 11.13000 2.700000 0.001000
GW 340  50 -27.77000 11.13000 2.700000 -30.00000 10.00000 15.20000 0.001000
GW 341  25 -30.00000 10.00000 0.350000 -27.00000 9.020000 2.700000 0.001000
GW 342  50 -27.00000 9.020000 2.700000 -30.00000 10.00000 15.20000 0.001000
GW 343  25 -30.00000 10.00000 0.350000 -28.87000 7.770000 2.700000 0.001000
GW 344  50 -28.87000 7.770000 2.700000 -30.00000 10.00000 15.20000 0.001000
GW 345  25 -30.00000 10.00000 0.350000 -30.57000 7.210000 2.700000 0.001000
GW 346  50 -30.57000 7.210000 2.700000 -30.00000 10.00000 15.20000 0.001000
GW 347  25 -30.00000 10.00000 0.350000 -32.23000 8.870000 2.700000 0.001000
GW 348  50 -32.23000 8.870000 2.700000 -30.00000 10.00000 15.20000 0.001000
GW 349  3  -30.00000 10.00000 0.200000 -30.00000 10.00000 0.350000 0.001000
GW 350  4  -30.00000 10.00000 0.200000 -30.18000 9.910000 0.200000 0.001000
GW 351  50 -30.18000 9.910000 0.200000 -43.38000 3.220000 0.200000 0.001000
GW 352  4  -30.00000 10.00000 0.200000 -30.20000 9.970000 0.200000 0.001000
GW 353  50 -30.20000 9.970000 0.200000 -44.82000 7.690000 0.200000 0.001000
GW 354  4  -30.00000 10.00000 0.200000 -30.20000 10.03000 0.200000 0.001000
GW 355  50 -30.20000 10.03000 0.200000 -44.81000 12.38000 0.200000 0.001000
GW 356  4  -30.00000 10.00000 0.200000 -30.18000 10.09000 0.200000 0.001000
GW 357  50 -30.18000 10.09000 0.200000 -46.03000 15.48000 0.200000 0.001000
GW 358  4  -30.00000 10.00000 0.200000 -30.14000 10.14000 0.200000 0.001000
GW 359  50 -30.14000 10.14000 0.200000 -40.58000 20.63000 0.200000 0.001000
GW 360  4  -30.00000 10.00000 0.200000 -30.09000 10.18000 0.200000 0.001000
GW 361  50 -30.09000 10.18000 0.200000 -36.78000 23.38000 0.200000 0.001000
GW 362  25 -10.00000 10.00000 0.350000 -11.78000 11.76000 2.700000 0.001000
GW 363  50 -11.78000 11.76000 2.700000 -10.00000 10.00000 15.20000 0.001000
GW 364  25 -10.00000 10.00000 0.350000 -10.01000 12.50000 2.700000 0.001000
GW 365  50 -10.01000 12.50000 2.700000 -10.00000 10.00000 15.20000 0.001000
GW 366  25 -10.00000 10.00000 0.350000 -7.780000 11.78000 2.700000 0.001000
GW 367  50 -7.780000 11.78000 2.700000 -10.00000 10.00000 15.20000 0.001000
GW 368  25 -10.00000 10.00000 0.350000 -7.500000 10.01000 2.700000 0.001000
GW 369  50 -7.500000 10.01000 2.700000 -10.00000 10.00000 15.20000 0.001000
GW 370  25 -10.00000 10.00000 0.350000 -7.760000 7.780000 2.700000 0.001000
GW 371  50 -7.760000 7.780000 2.700000 -10.00000 10.00000 15.20000 0.001000
GW 372  25 -10.00000 10.00000 0.350000 -9.990000 7.500000 2.700000 0.001000
GW 373  50 -9.990000 7.500000 2.700000 -10.00000 10.00000 15.20000 0.001000
GW 374  25 -10.00000 10.00000 0.350000 -11.76000 7.760000 2.700000 0.001000
GW 375  50 -11.76000 7.760000 2.700000 -10.00000 10.00000 15.20000 0.001000
GW 376  25 -10.00000 10.00000 0.350000 -12.50000 9.990000 2.700000 0.001000
GW 377  50 -12.50000 9.990000 2.700000 -10.00000 10.00000 15.20000 0.001000
GW 378  3  -10.00000 10.00000 0.200000 -10.00000 10.00000 0.350000 0.001000
GW 379  4  -10.00000 10.00000 0.200000 -10.20000 10.00000 0.200000 0.001000
GW 380  50 -10.20000 10.00000 0.200000 -25.00000 9.920000 0.200000 0.001000
GW 381  4  -10.00000 10.00000 0.200000 -10.19000 10.06000 0.200000 0.001000
GW 382  50 -10.19000 10.06000 0.200000 -24.29000 14.56000 0.200000 0.001000
GW 383  4  -10.00000 10.00000 0.200000 -10.16000 10.12000 0.200000 0.001000
GW 384  50 -10.16000 10.12000 0.200000 -22.18000 18.75000 0.200000 0.001000
GW 385  4  -10.00000 10.00000 0.200000 -10.12000 10.16000 0.200000 0.001000
GW 386  50 -10.12000 10.16000 0.200000 -21.88000 22.07000 0.200000 0.001000
GW 387  4  -10.00000 10.00000 0.200000 -10.06000 10.19000 0.200000 0.001000
GW 388  50 -10.06000 10.19000 0.200000 -14.71000 24.24000 0.200000 0.001000
GW 389  4  -10.00000 10.00000 0.200000 -10.00000 10.20000 0.200000 0.001000
GW 390  50 -10.00000 10.20000 0.200000 -10.08000 25.00000 0.200000 0.001000
GW 391  25 10.00000 10.00000 0.350000 11.76000 11.78000 2.700000 0.001000
GW 392  50 11.76000 11.78000 2.700000 10.00000 10.00000 15.20000 0.001000
GW 393  25 10.00000 10.00000 0.350000 12.50000 10.01000 2.700000 0.001000
GW 394  50 12.50000 10.01000 2.700000 10.00000 10.00000 15.20000 0.001000
GW 395  25 10.00000 10.00000 0.350000 11.78000 7.780000 2.700000 0.001000
GW 396  50 11.78000 7.780000 2.700000 10.00000 10.00000 15.20000 0.001000
GW 397  25 10.00000 10.00000 0.350000 10.01000 7.500000 2.700000 0.001000
GW 398  50 10.01000 7.500000 2.700000 10.00000 10.00000 15.20000 0.001000
GW 399  25 10.00000 10.00000 0.350000 7.780000 7.760000 2.700000 0.001000
GW 400  50 7.780000 7.760000 2.700000 10.00000 10.00000 15.20000 0.001000
GW 401  25 10.00000 10.00000 0.350000 7.500000 9.990000 2.700000 0.001000
GW 402  50 7.500000 9.990000 2.700000 10.00000 10.00000 15.20000 0.001000
GW 403  25 10.00000 10.00000 0.350000 7.760000 11.76000 2.700000 0.001000
GW 404  50 7.760000 11.76000 2.700000 10.00000 10.00000 15.20000 0.001000
GW 405  25 10.00000 10.00000 0.350000 9.990000 12.50000 2.700000 0.001000
GW 406  50 9.990000 12.50000 2.700000 10.00000 10.00000 15.20000 0.001000
GW 407  3  10.00000 10.00000 0.200000 10.00000 10.00000 0.350000 0.001000
GW 408  4  10.00000 10.00000 0.200000 10.00000 10.20000 0.200000 0.001000
GW 409  50 10.00000 10.20000 0.200000 9.920000 25.00000 0.200000 0.001000
GW 410  4  10.00000 10.00000 0.200000 10.06000 10.19000 0.200000 0.001000
GW 411  50 10.06000 10.19000 0.200000 14.56000 24.29000 0.200000 0.001000
GW 412  4  10.00000 10.00000 0.200000 10.12000 10.16000 0.200000 0.001000
GW 413  50 10.12000 10.16000 0.200000 18.75000 22.18000 0.200000 0.001000
GW 414  4  10.00000 10.00000 0.200000 10.16000 10.12000 0.200000 0.001000
GW 415  50 10.16000 10.12000 0.200000 22.07000 21.88000 0.200000 0.001000
GW 416  4  10.00000 10.00000 0.200000 10.19000 10.06000 0.200000 0.001000
GW 417  50 10.19000 10.06000 0.200000 24.24000 14.71000 0.200000 0.001000
GW 418  4  10.00000 10.00000 0.200000 10.20000 10.00000 0.200000 0.001000
GW 419  50 10.20000 10.00000 0.200000 25.00000 10.08000 0.200000 0.001000
GW 420  25 30.00000 10.00000 0.350000 32.37000 10.80000 2.700000 0.001000
GW 421  50 32.37000 10.80000 2.700000 30.00000 10.00000 15.20000 0.001000
GW 422  25 30.00000 10.00000 0.350000 32.24000 8.890000 2.700000 0.001000
GW 423  50 32.24000 8.890000 2.700000 30.00000 10.00000 15.20000 0.001000
GW 424  25 30.00000 10.00000 0.350000 30.60000 7.220000 2.700000 0.001000
GW 425  50 30.60000 7.220000 2.700000 30.00000 10.00000 15.20000 0.001000
GW 426  25 30.00000 10.00000 0.350000 28.89000 7.760000 2.700000 0.001000
GW 427  50 28.89000 7.760000 2.700000 30.00000 10.00000 15.20000 0.001000
GW 428  25 30.00000 10.00000 0.350000 27.01000 8.990000 2.700000 0.001000
GW 429  50 27.01000 8.990000 2.700000 30.00000 10.00000 15.20000 0.001000
GW 430  25 30.00000 10.00000 0.350000 27.76000 11.11000 2.700000 0.001000
GW 431  50 27.76000 11.11000 2.700000 30.00000 10.00000 15.20000 0.001000
GW 432  25 30.00000 10.00000 0.350000 28.78000 12.57000 2.700000 0.001000
GW 433  50 28.78000 12.57000 2.700000 30.00000 10.00000 15.20000 0.001000
GW 434  25 30.00000 10.00000 0.350000 31.11000 12.24000 2.700000 0.001000
GW 435  50 31.11000 12.24000 2.700000 30.00000 10.00000 15.20000 0.001000
GW 436  3  30.00000 10.00000 0.200000 30.00000 10.00000 0.350000 0.001000
GW 437  4  30.00000 10.00000 0.200000 30.09000 10.18000 0.200000 0.001000
GW 438  50 30.09000 10.18000 0.200000 36.64000 23.45000 0.200000 0.001000
GW 439  4  30.00000 10.00000 0.200000 30.14000 10.14000 0.200000 0.001000
GW 440  50 30.14000 10.14000 0.200000 40.47000 20.74000 0.200000 0.001000
GW 441  4  30.00000 10.00000 0.200000 30.18000 10.09000 0.200000 0.001000
GW 442  50 30.18000 10.09000 0.200000 43.28000 16.98000 0.200000 0.001000
GW 443  4  30.00000 10.00000 0.200000 30.20000 10.03000 0.200000 0.001000
GW 444  50 30.20000 10.03000 0.200000 46.11000 15.23000 0.200000 0.001000
GW 445  4  30.00000 10.00000 0.200000 30.20000 9.970000 0.200000 0.001000
GW 446  50 30.20000 9.970000 0.200000 44.84000 7.850000 0.200000 0.001000
GW 447  4  30.00000 10.00000 0.200000 30.18000 9.910000 0.200000 0.001000
GW 448  50 30.18000 9.910000 0.200000 43.45000 3.360000 0.200000 0.001000
GW 449  25 -30.00000 30.00000 0.350000 -31.78000 31.76000 2.700000 0.001000
GW 450  50 -31.78000 31.76000 2.700000 -30.00000 30.00000 15.20000 0.001000
GW 451  25 -30.00000 30.00000 0.350000 -30.01000 32.50000 2.700000 0.001000
GW 452  50 -30.01000 32.50000 2.700000 -30.00000 30.00000 15.20000 0.001000
GW 453  25 -30.00000 30.00000 0.350000 -27.78000 31.78000 2.700000 0.001000
GW 454  50 -27.78000 31.78000 2.700000 -30.00000 30.00000 15.20000 0.001000
GW 455  25 -30.00000 30.00000 0.350000 -27.50000 30.01000 2.700000 0.001000
GW 456  50 -27.50000 30.01000 2.700000 -30.00000 30.00000 15.20000 0.001000
GW 457  25 -30.00000 30.00000 0.350000 -27.76000 27.78000 2.700000 0.001000
GW 458  50 -27.76000 27.78000 2.700000 -30.00000 30.00000 15.20000 0.001000
GW 459  25 -30.00000 30.00000 0.350000 -29.99000 27.50000 2.700000 0.001000
GW 460  50 -29.99000 27.50000 2.700000 -30.00000 30.00000 15.20000 0.001000
GW 461  25 -30.00000 30.00000 0.350000 -31.76000 27.76000 2.700000 0.001000
GW 462  50 -31.76000 27.76000 2.700000 -30.00000 30.00000 15.20000 0.001000
GW 463  25 -30.00000 30.00000 0.350000 -32.50000 29.99000 2.700000 0.001000
GW 464  50 -32.50000 29.99000 2.700000 -30.00000 30.00000 15.20000 0.001000
GW 465  3  -30.00000 30.00000 0.200000 -30.00000 30.00000 0.350000 0.001000
GW 466  4  -30.00000 30.00000 0.200000 -30.20000 30.00000 0.200000 0.001000
GW 467  50 -30.20000 30.00000 0.200000 -45.00000 29.92000 0.200000 0.001000
GW 468  4  -30.00000 30.00000 0.200000 -30.19000 30.06000 0.200000 0.001000
GW 469  50 -30.19000 30.06000 0.200000 -44.29000 34.56000 0.200000 0.001000
GW 470  4  -30.00000 30.00000 0.200000 -30.16000 30.12000 0.200000 0.001000
GW 471  50 -30.16000 30.12000 0.200000 -42.18000 38.75000 0.200000 0.001000
GW 472  4  -30.00000 30.00000 0.200000 -30.12000 30.16000 0.200000 0.001000
GW 473  50 -30.12000 30.16000 0.200000 -41.88000 42.07000 0.200000 0.001000
GW 474  4  -30.00000 30.00000 0.200000 -30.06000 30.19000 0.200000 0.001000
GW 475  50 -30.06000 30.19000 0.200000 -34.71000 44.24000 0.200000 0.001000
GW 476  4  -30.00000 30.00000 0.200000 -30.00000 30.20000 0.200000 0.001000
GW 477  50 -30.00000 30.20000 0.200000 -30.08000 45.00000 0.200000 0.001000
GW 478  25 -10.00000 30.00000 0.350000 -10.80000 32.37000 2.700000 0.001000
GW 479  50 -10.80000 32.37000 2.700000 -10.00000 30.00000 15.20000 0.001000
GW 480  25 -10.00000 30.00000 0.350000 -8.890000 32.24000 2.700000 0.001000
GW 481  50 -8.890000 32.24000 2.700000 -10.00000 30.00000 15.20000 0.001000
GW 482  25 -10.00000 30.00000 0.350000 -7.220000 30.60000 2.700000 0.001000
GW 483  50 -7.220000 30.60000 2.700000 -10.00000 30.00000 15.20000 0.001000
GW 484  25 -10.00000 30.00000 0.350000 -7.760000 28.89000 2.700000 0.001000
GW 485  50 -7.760000 28.89000 2.700000 -10.00000 30.00000 15.20000 0.001000
GW 486  25 -10.00000 30.00000 0.350000 -8.990000 27.01000 2.700000 0.001000
GW 487  50 -8.990000 27.01000 2.700000 -10.00000 30.00000 15.20000 0.001000
GW 488  25 -10.00000 30.00000 0.350000 -11.11000 27.76000 2.700000 0.001000
GW 489  50 -11.11000 27.76000 2.700000 -10.00000 30.00000 15.20000 0.001000
GW 490  25 -10.00000 30.00000 0.350000 -12.57000 28.78000 2.700000 0.001000
GW 491  50 -12.57000 28.78000 2.700000 -10.00000 30.00000 15.20000 0.001000
GW 492  25 -10.00000 30.00000 0.350000 -12.24000 31.11000 2.700000 0.001000
GW 493  50 -12.24000 31.11000 2.700000 -10.00000 30.00000 15.20000 0.001000