CM 
CE
GW	101	25	-7.500000	-7.500000	0.350000	-9.260000	-9.280000	2.700000	0.001000
GW	102	50	-9.260000	-9.280000	2.700000	-7.500000	-7.500000	15.20000	0.001000
GW	103	25	-7.500000	-7.500000	0.350000	-10.00000	-7.510000	2.700000	0.001000
GW	104	50	-10.00000	-7.510000	2.700000	-7.500000	-7.500000	15.20000	0.001000
GW	105	25	-7.500000	-7.500000	0.350000	-9.280000	-5.280000	2.700000	0.001000
GW	106	50	-9.280000	-5.280000	2.700000	-7.500000	-7.500000	15.20000	0.001000
GW	107	25	-7.500000	-7.500000	0.350000	-7.510000	-5.000000	2.700000	0.001000
GW	108	50	-7.510000	-5.000000	2.700000	-7.500000	-7.500000	15.20000	0.001000
GW	109	25	-7.500000	-7.500000	0.350000	-5.280000	-5.260000	2.700000	0.001000
GW	110	50	-5.280000	-5.260000	2.700000	-7.500000	-7.500000	15.20000	0.001000
GW	111	25	-7.500000	-7.500000	0.350000	-5.000000	-7.490000	2.700000	0.001000
GW	112	50	-5.000000	-7.490000	2.700000	-7.500000	-7.500000	15.20000	0.001000
GW	113	25	-7.500000	-7.500000	0.350000	-5.260000	-9.260000	2.700000	0.001000
GW	114	50	-5.260000	-9.260000	2.700000	-7.500000	-7.500000	15.20000	0.001000
GW	115	25	-7.500000	-7.500000	0.350000	-7.490000	-10.00000	2.700000	0.001000
GW	116	50	-7.490000	-10.00000	2.700000	-7.500000	-7.500000	15.20000	0.001000
GW	117	3	-7.500000	-7.500000	0.200000	-7.500000	-7.500000	0.350000	0.001000
GW	118	4	-7.500000	-7.500000	0.200000	-7.500000	-7.700000	0.200000	0.001000
GW	119	50	-7.500000	-7.700000	0.200000	-7.420000	-22.50000	0.200000	0.001000
GW	120	4	-7.500000	-7.500000	0.200000	-7.560000	-7.690000	0.200000	0.001000
GW	121	50	-7.560000	-7.690000	0.200000	-12.06000	-21.79000	0.200000	0.001000
GW	122	4	-7.500000	-7.500000	0.200000	-7.620000	-7.660000	0.200000	0.001000
GW	123	50	-7.620000	-7.660000	0.200000	-16.25000	-19.68000	0.200000	0.001000
GW	124	4	-7.500000	-7.500000	0.200000	-7.660000	-7.620000	0.200000	0.001000
GW	125	50	-7.660000	-7.620000	0.200000	-19.57000	-19.38000	0.200000	0.001000
GW	126	4	-7.500000	-7.500000	0.200000	-7.690000	-7.560000	0.200000	0.001000
GW	127	50	-7.690000	-7.560000	0.200000	-21.74000	-12.21000	0.200000	0.001000
GW	128	4	-7.500000	-7.500000	0.200000	-7.700000	-7.500000	0.200000	0.001000
GW	129	50	-7.700000	-7.500000	0.200000	-22.50000	-7.580000	0.200000	0.001000
GW	130	25	7.500000	-7.500000	0.350000	9.280000	-9.260000	2.700000	0.001000
GW	131	50	9.280000	-9.260000	2.700000	7.500000	-7.500000	15.20000	0.001000
GW	132	25	7.500000	-7.500000	0.350000	7.510000	-10.00000	2.700000	0.001000
GW	133	50	7.510000	-10.00000	2.700000	7.500000	-7.500000	15.20000	0.001000
GW	134	25	7.500000	-7.500000	0.350000	5.280000	-9.280000	2.700000	0.001000
GW	135	50	5.280000	-9.280000	2.700000	7.500000	-7.500000	15.20000	0.001000
GW	136	25	7.500000	-7.500000	0.350000	5.000000	-7.510000	2.700000	0.001000
GW	137	50	5.000000	-7.510000	2.700000	7.500000	-7.500000	15.20000	0.001000
GW	138	25	7.500000	-7.500000	0.350000	5.260000	-5.280000	2.700000	0.001000
GW	139	50	5.260000	-5.280000	2.700000	7.500000	-7.500000	15.20000	0.001000
GW	140	25	7.500000	-7.500000	0.350000	7.490000	-5.000000	2.700000	0.001000
GW	141	50	7.490000	-5.000000	2.700000	7.500000	-7.500000	15.20000	0.001000
GW	142	25	7.500000	-7.500000	0.350000	9.260000	-5.260000	2.700000	0.001000
GW	143	50	9.260000	-5.260000	2.700000	7.500000	-7.500000	15.20000	0.001000
GW	144	25	7.500000	-7.500000	0.350000	10.00000	-7.490000	2.700000	0.001000
GW	145	50	10.00000	-7.490000	2.700000	7.500000	-7.500000	15.20000	0.001000
GW	146	3	7.500000	-7.500000	0.200000	7.500000	-7.500000	0.350000	0.001000
GW	147	4	7.500000	-7.500000	0.200000	7.700000	-7.500000	0.200000	0.001000
GW	148	50	7.700000	-7.500000	0.200000	22.50000	-7.420000	0.200000	0.001000
GW	149	4	7.500000	-7.500000	0.200000	7.690000	-7.560000	0.200000	0.001000
GW	150	50	7.690000	-7.560000	0.200000	21.79000	-12.06000	0.200000	0.001000
GW	151	4	7.500000	-7.500000	0.200000	7.660000	-7.620000	0.200000	0.001000
GW	152	50	7.660000	-7.620000	0.200000	19.68000	-16.25000	0.200000	0.001000
GW	153	4	7.500000	-7.500000	0.200000	7.620000	-7.660000	0.200000	0.001000
GW	154	50	7.620000	-7.660000	0.200000	19.38000	-19.57000	0.200000	0.001000
GW	155	4	7.500000	-7.500000	0.200000	7.560000	-7.690000	0.200000	0.001000
GW	156	50	7.560000	-7.690000	0.200000	12.21000	-21.74000	0.200000	0.001000
GW	157	4	7.500000	-7.500000	0.200000	7.500000	-7.700000	0.200000	0.001000
GW	158	50	7.500000	-7.700000	0.200000	7.580000	-22.50000	0.200000	0.001000
GW	159	25	-7.500000	7.500000	0.350000	-9.280000	9.260000	2.700000	0.001000
GW	160	50	-9.280000	9.260000	2.700000	-7.500000	7.500000	15.20000	0.001000
GW	161	25	-7.500000	7.500000	0.350000	-7.510000	10.00000	2.700000	0.001000
GW	162	50	-7.510000	10.00000	2.700000	-7.500000	7.500000	15.20000	0.001000
GW	163	25	-7.500000	7.500000	0.350000	-5.280000	9.280000	2.700000	0.001000
GW	164	50	-5.280000	9.280000	2.700000	-7.500000	7.500000	15.20000	0.001000
GW	165	25	-7.500000	7.500000	0.350000	-5.000000	7.510000	2.700000	0.001000
GW	166	50	-5.000000	7.510000	2.700000	-7.500000	7.500000	15.20000	0.001000
GW	167	25	-7.500000	7.500000	0.350000	-5.260000	5.280000	2.700000	0.001000
GW	168	50	-5.260000	5.280000	2.700000	-7.500000	7.500000	15.20000	0.001000
GW	169	25	-7.500000	7.500000	0.350000	-7.490000	5.000000	2.700000	0.001000
GW	170	50	-7.490000	5.000000	2.700000	-7.500000	7.500000	15.20000	0.001000
GW	171	25	-7.500000	7.500000	0.350000	-9.260000	5.260000	2.700000	0.001000
GW	172	50	-9.260000	5.260000	2.700000	-7.500000	7.500000	15.20000	0.001000
GW	173	25	-7.500000	7.500000	0.350000	-10.00000	7.490000	2.700000	0.001000
GW	174	50	-10.00000	7.490000	2.700000	-7.500000	7.500000	15.20000	0.001000
GW	175	3	-7.500000	7.500000	0.200000	-7.500000	7.500000	0.350000	0.001000
GW	176	4	-7.500000	7.500000	0.200000	-7.700000	7.500000	0.200000	0.001000
GW	177	50	-7.700000	7.500000	0.200000	-22.50000	7.420000	0.200000	0.001000
GW	178	4	-7.500000	7.500000	0.200000	-7.690000	7.560000	0.200000	0.001000
GW	179	50	-7.690000	7.560000	0.200000	-21.79000	12.06000	0.200000	0.001000
GW	180	4	-7.500000	7.500000	0.200000	-7.660000	7.620000	0.200000	0.001000
GW	181	50	-7.660000	7.620000	0.200000	-19.68000	16.25000	0.200000	0.001000
GW	182	4	-7.500000	7.500000	0.200000	-7.620000	7.660000	0.200000	0.001000
GW	183	50	-7.620000	7.660000	0.200000	-19.38000	19.57000	0.200000	0.001000
GW	184	4	-7.500000	7.500000	0.200000	-7.560000	7.690000	0.200000	0.001000
GW	185	50	-7.560000	7.690000	0.200000	-12.21000	21.74000	0.200000	0.001000
GW	186	4	-7.500000	7.500000	0.200000	-7.500000	7.700000	0.200000	0.001000
GW	187	50	-7.500000	7.700000	0.200000	-7.580000	22.50000	0.200000	0.001000
GW	188	25	7.500000	7.500000	0.350000	9.260000	9.280000	2.700000	0.001000
GW	189	50	9.260000	9.280000	2.700000	7.500000	7.500000	15.20000	0.001000
GW	190	25	7.500000	7.500000	0.350000	10.00000	7.510000	2.700000	0.001000
GW	191	50	10.00000	7.510000	2.700000	7.500000	7.500000	15.20000	0.001000
GW	192	25	7.500000	7.500000	0.350000	9.280000	5.280000	2.700000	0.001000
GW	193	50	9.280000	5.280000	2.700000	7.500000	7.500000	15.20000	0.001000
GW	194	25	7.500000	7.500000	0.350000	7.510000	5.000000	2.700000	0.001000
GW	195	50	7.510000	5.000000	2.700000	7.500000	7.500000	15.20000	0.001000
GW	196	25	7.500000	7.500000	0.350000	5.280000	5.260000	2.700000	0.001000
GW	197	50	5.280000	5.260000	2.700000	7.500000	7.500000	15.20000	0.001000
GW	198	25	7.500000	7.500000	0.350000	5.000000	7.490000	2.700000	0.001000
GW	199	50	5.000000	7.490000	2.700000	7.500000	7.500000	15.20000	0.001000
GW	200	25	7.500000	7.500000	0.350000	5.260000	9.260000	2.700000	0.001000
GW	201	50	5.260000	9.260000	2.700000	7.500000	7.500000	15.20000	0.001000
GW	202	25	7.500000	7.500000	0.350000	7.490000	10.00000	2.700000	0.001000
GW	203	50	7.490000	10.00000	2.700000	7.500000	7.500000	15.20000	0.001000
GW	204	3	7.500000	7.500000	0.200000	7.500000	7.500000	0.350000	0.001000
GW	205	4	7.500000	7.500000	0.200000	7.500000	7.700000	0.200000	0.001000
GW	206	50	7.500000	7.700000	0.200000	7.420000	22.50000	0.200000	0.001000
GW	207	4	7.500000	7.500000	0.200000	7.560000	7.690000	0.200000	0.001000
GW	208	50	7.560000	7.690000	0.200000	12.06000	21.79000	0.200000	0.001000
GW	209	4	7.500000	7.500000	0.200000	7.620000	7.660000	0.200000	0.001000
GW	210	50	7.620000	7.660000	0.200000	16.25000	19.68000	0.200000	0.001000
GW	211	4	7.500000	7.500000	0.200000	7.660000	7.620000	0.200000	0.001000
GW	212	50	7.660000	7.620000	0.200000	19.57000	19.38000	0.200000	0.001000
GW	213	4	7.500000	7.500000	0.200000	7.690000	7.560000	0.200000	0.001000
GW	214	50	7.690000	7.560000	0.200000	21.74000	12.21000	0.200000	0.001000
GW	215	4	7.500000	7.500000	0.200000	7.700000	7.500000	0.200000	0.001000
GW	216	50	7.700000	7.500000	0.200000	22.50000	7.580000	0.200000	0.001000
GE	1
GN	2	0	0	0	10.0	0.01
EK
EX	0	117	2	0	1.0000E+000	0	0	0
EX	0	146	2	0	1.0000E+000	0	0	0
EX	0	175	2	0	1.0000E+000	0	0	0
EX	0	204	2	0	1.0000E+000	0	0	0
FR	0	0	0	0	75	0
RP	0	19	72	1010	0.0	0.0	5.0	5.0		
EN
