CM
CE
GW 101  20 -7.500000 -5.000000 -5.000000 -7.500000 -5.000000 5.000000 0.001000
GW 102  20 -2.500000 -5.000000 -5.000000 -2.500000 -5.000000 5.000000 0.001000
GW 103  20 2.500000 -5.000000 -5.000000 2.500000 -5.000000 5.000000 0.001000
GW 104  20 7.500000 -5.000000 -5.000000 7.500000 -5.000000 5.000000 0.001000
GW 201  20 -7.500000 0.000000 -5.000000 -7.500000 0.000000 5.000000 0.001000
GW 202  20 -2.500000 0.000000 -5.000000 -2.500000 0.000000 5.000000 0.001000
GW 203  20 2.500000 0.000000 -5.000000 2.500000 0.000000 5.000000 0.001000
GW 204  20 7.500000 0.000000 -5.000000 7.500000 0.000000 5.000000 0.001000
GW 301  20 -7.500000 5.000000 -5.000000 -7.500000 5.000000 5.000000 0.001000
GW 302  20 -2.500000 5.000000 -5.000000 -2.500000 5.000000 5.000000 0.001000
GW 303  20 2.500000 5.000000 -5.000000 2.500000 5.000000 5.000000 0.001000
GW 304  20 7.500000 5.000000 -5.000000 7.500000 5.000000 5.000000 0.001000
GE 0 
GN -1 0  0  0  10.0  0.01 
FR  0  0  0  0   150 
EX  0 101  10 0   -1.4730E+002   -1.3744E+001 
EX  0 102  10 0   1.3386E+002   7.8399E+001 
EX  0 103  10 0   - 9.2500E+001   -1.2697E+002 
EX  0 104  10 0    3.7570E+001   1.4699E+002 
EX  0 201  10 0   -1.3993E+002   -1.8887E+001 
EX  0 202  10 0   1.2426E+002   8.6753E+001 
EX  0 203  10 0   -8.5291E+001   -1.2803E+002 
EX  0 204  10 0    3.4970E+001   1.4461E+002 
EX  0 301  10 0   -1.4719E+002   - 1.3790E+001 
EX  0 302  10 0   1.3375E+002   7.8586E+001 
EX  0 303  10 0   -9.2515E+001   -1.2699E+002 
EX  0 304  10 0   3.7542E+001   1.4704E+002 
RP  0  19  72  1010 0.0 0.0 5.0 5.0
EN
