GW	101	20	0.0000000	-5.000000	-5.000000	0.0000000	-5.000000	5.000000	0.001000
EX  0 101  10  0 1.0      0.0