CM
CE
GW 101  20 -7.500000 -5.000000 -5.000000 -7.500000 -5.000000 5.000000 0.001000
GW 102  20 -2.500000 -5.000000 -5.000000 -2.500000 -5.000000 5.000000 0.001000
GW 103  20 2.500000 -5.000000 -5.000000 2.500000 -5.000000 5.000000 0.001000
GW 104  20 7.500000 -5.000000 -5.000000 7.500000 -5.000000 5.000000 0.001000
GW 201  20 -7.500000 0.000000 -5.000000 -7.500000 0.000000 5.000000 0.001000
GW 202  20 -2.500000 0.000000 -5.000000 -2.500000 0.000000 5.000000 0.001000
GW 203  20 2.500000 0.000000 -5.000000 2.500000 0.000000 5.000000 0.001000
GW 204  20 7.500000 0.000000 -5.000000 7.500000 0.000000 5.000000 0.001000
GW 301  20 -7.500000 5.000000 -5.000000 -7.500000 5.000000 5.000000 0.001000
GW 302  20 -2.500000 5.000000 -5.000000 -2.500000 5.000000 5.000000 0.001000
GW 303  20 2.500000 5.000000 -5.000000 2.500000 5.000000 5.000000 0.001000
GW 304  20 7.500000 5.000000 -5.000000 7.500000 5.000000 5.000000 0.001000
GE 0 
GN -1 0  0  0  10.0  0.01 
FR  0  0  0  0   150 
EX  0 101  10 0   6.1629E+001   7.9429E+001 
EX  0 102  10 0   -8.0796E+001   -5.8489E+001 
EX  0 103  10 0   5.4111E+001   8.2924E+001 
EX  0 104  10 0   3.9603E+001   -9.2419E+001 
EX  0 201  10 0    7.9170E+001   6.1886E+001 
EX  0 202  10 0   -6.9749E+001   -7.1096E+001 
EX  0 203  10 0   7.3998E+001   6.7545E+001 
EX  0 204  10 0   5.5204E+001   -8.5574E+001 
EX  0 301  10 0   6.4046E+001   7.6336E+001 
EX  0 302  10 0   -7.5545E+001   -6.5029E+001 
EX  0 303  10 0    7.8760E+001   6.0989E+001 
EX  0 304  10 0   5.0109E+001   -8.5035E+001 
RP  0  19  72  1010 0.0 0.0 5.0 5.0
EN
