CM
CE
GW 101  20 -7.500000 -5.000000 -5.000000 -7.500000 -5.000000 5.000000 0.001000
GW 102  20 -2.500000 -5.000000 -5.000000 -2.500000 -5.000000 5.000000 0.001000
GW 103  20 2.500000 -5.000000 -5.000000 2.500000 -5.000000 5.000000 0.001000
GW 104  20 7.500000 -5.000000 -5.000000 7.500000 -5.000000 5.000000 0.001000
GW 201  20 -7.500000 0.000000 -5.000000 -7.500000 0.000000 5.000000 0.001000
GW 202  20 -2.500000 0.000000 -5.000000 -2.500000 0.000000 5.000000 0.001000
GW 203  20 2.500000 0.000000 -5.000000 2.500000 0.000000 5.000000 0.001000
GW 204  20 7.500000 0.000000 -5.000000 7.500000 0.000000 5.000000 0.001000
GW 301  20 -7.500000 5.000000 -5.000000 -7.500000 5.000000 5.000000 0.001000
GW 302  20 -2.500000 5.000000 -5.000000 -2.500000 5.000000 5.000000 0.001000
GW 303  20 2.500000 5.000000 -5.000000 2.500000 5.000000 5.000000 0.001000
GW 304  20 7.500000 5.000000 -5.000000 7.500000 5.000000 5.000000 0.001000
GE 0 
GN -1 0  0  0  10.0  0.01 
FR  0  0  0  0   150 
EX  0 101  10 0   - 6.9230E+002   -2.4810E+003 
EX  0 102  10 0   - 4.7720E+002   2.5463E+003 
EX  0 103  10 0   1.4859E+003   -2.1685E+003 
EX  0 104  10 0   -2.2125E+003   1.4279E+003 
EX  0 201  10 0   -5.9810E+002   -2.3707E+003 
EX  0 202  10 0   -6.4212E+002   2.3659E+003 
EX  0 203  10 0   1.5194E+003   -1.9775E+003 
EX  0 204  10 0   -2.1982E+003   1.3369E+003 
EX  0 301  10 0   -6.8926E+002   -2.4929E+003 
EX  0 302  10 0   -4.9086E+002   2.5357E+003 
EX  0 303  10 0   1.4724E+003   -2.1659E+003 
EX  0 304  10 0   -2.2206E+003   1.4349E+003 
RP  0  19  72  1010 0.0 0.0 5.0 5.0
EN
