CM
CE
GW 101  20 -7.500000 -5.000000 -5.000000 -7.500000 -5.000000 5.000000 0.001000
GW 102  20 -2.500000 -5.000000 -5.000000 -2.500000 -5.000000 5.000000 0.001000
GW 103  20 2.500000 -5.000000 -5.000000 2.500000 -5.000000 5.000000 0.001000
GW 104  20 7.500000 -5.000000 -5.000000 7.500000 -5.000000 5.000000 0.001000
GW 201  20 -7.500000 0.000000 -5.000000 -7.500000 0.000000 5.000000 0.001000
GW 202  20 -2.500000 0.000000 -5.000000 -2.500000 0.000000 5.000000 0.001000
GW 203  20 2.500000 0.000000 -5.000000 2.500000 0.000000 5.000000 0.001000
GW 204  20 7.500000 0.000000 -5.000000 7.500000 0.000000 5.000000 0.001000
GW 301  20 -7.500000 5.000000 -5.000000 -7.500000 5.000000 5.000000 0.001000
GW 302  20 -2.500000 5.000000 -5.000000 -2.500000 5.000000 5.000000 0.001000
GW 303  20 2.500000 5.000000 -5.000000 2.500000 5.000000 5.000000 0.001000
GW 304  20 7.500000 5.000000 -5.000000 7.500000 5.000000 5.000000 0.001000
GE 0 
GN -1 0  0  0  10.0  0.01 
FR  0  0  0  0   150 
EX  0 101  10 0   - 5.0000E+000   8.2490E+000 
EX  0 102  10 0   7.7109E+000   6.5156E+000 
EX  0 103  10 0   7.8720E+000   -6.2163E+000 
EX  0 104  10 0   -4.9882E+000   -9.0014E+000 
EX  0 201  10 0   -4.0991E+000   7.3544E+000 
EX  0 202  10 0   7.4067E+000   5.7246E+000 
EX  0 203  10 0   7.1777E+000   -5.8676E+000 
EX  0 204  10 0   -4.9995E+000   -8.5629E+000 
EX  0 301  10 0   - 5.0000E+000   8.2490E+000 
EX  0 302  10 0   7.7109E+000   6.5156E+000 
EX  0 303  10 0   7.8720E+000   -6.2163E+000 
EX  0 304  10 0   -4.9882E+000   -9.0014E+000 
RP  0  19  72  1010 0.0 0.0 5.0 5.0
EN
