CM
CE
GW 101  20 -7.500000 -5.000000 -5.000000 -7.500000 -5.000000 5.000000 0.001000
GW 102  20 -2.500000 -5.000000 -5.000000 -2.500000 -5.000000 5.000000 0.001000
GW 103  20 2.500000 -5.000000 -5.000000 2.500000 -5.000000 5.000000 0.001000
GW 104  20 7.500000 -5.000000 -5.000000 7.500000 -5.000000 5.000000 0.001000
GW 201  20 -7.500000 0.000000 -5.000000 -7.500000 0.000000 5.000000 0.001000
GW 202  20 -2.500000 0.000000 -5.000000 -2.500000 0.000000 5.000000 0.001000
GW 203  20 2.500000 0.000000 -5.000000 2.500000 0.000000 5.000000 0.001000
GW 204  20 7.500000 0.000000 -5.000000 7.500000 0.000000 5.000000 0.001000
GW 301  20 -7.500000 5.000000 -5.000000 -7.500000 5.000000 5.000000 0.001000
GW 302  20 -2.500000 5.000000 -5.000000 -2.500000 5.000000 5.000000 0.001000
GW 303  20 2.500000 5.000000 -5.000000 2.500000 5.000000 5.000000 0.001000
GW 304  20 7.500000 5.000000 -5.000000 7.500000 5.000000 5.000000 0.001000
GE 0 
GN -1 0  0  0  10.0  0.01 
FR  0  0  0  0   150 
EX  0 101  10 0   -1.6398E+002   3.8537E+003 
EX  0 102  10 0   1.8542E+003   -3.3878E+003 
EX  0 103  10 0   -3.0662E+003   2.3629E+003 
EX  0 104  10 0   3.7437E+003   -9.9927E+002 
EX  0 201  10 0   -2.5623E+002   3.8060E+003 
EX  0 202  10 0   2.0894E+003   -3.1942E+003 
EX  0 203  10 0   -3.1541E+003   2.1707E+003 
EX  0 204  10 0   3.7516E+003   -8.9216E+002 
EX  0 301  10 0   -1.6395E+002   3.8538E+003 
EX  0 302  10 0   2.5936E+003   -4.7399E+003 
EX  0 303  10 0   -3.0667E+003   2.3625E+003 
EX  0 304  10 0   3.7436E+003   -9.9925E+002 
RP  0  19  72  1010 0.0 0.0 5.0 5.0
EN
