CM
CE
GW 101  20 -7.500000 -5.000000 -5.000000 -7.500000 -5.000000 5.000000 0.001000
GW 102  20 -2.500000 -5.000000 -5.000000 -2.500000 -5.000000 5.000000 0.001000
GW 103  20 2.500000 -5.000000 -5.000000 2.500000 -5.000000 5.000000 0.001000
GW 104  20 7.500000 -5.000000 -5.000000 7.500000 -5.000000 5.000000 0.001000
GW 201  20 -7.500000 0.000000 -5.000000 -7.500000 0.000000 5.000000 0.001000
GW 202  20 -2.500000 0.000000 -5.000000 -2.500000 0.000000 5.000000 0.001000
GW 203  20 2.500000 0.000000 -5.000000 2.500000 0.000000 5.000000 0.001000
GW 204  20 7.500000 0.000000 -5.000000 7.500000 0.000000 5.000000 0.001000
GW 301  20 -7.500000 5.000000 -5.000000 -7.500000 5.000000 5.000000 0.001000
GW 302  20 -2.500000 5.000000 -5.000000 -2.500000 5.000000 5.000000 0.001000
GW 303  20 2.500000 5.000000 -5.000000 2.500000 5.000000 5.000000 0.001000
GW 304  20 7.500000 5.000000 -5.000000 7.500000 5.000000 5.000000 0.001000
GE 0 
GN -1 0  0  0  10.0  0.01 
FR  0  0  0  0   150 
EX  0 101  10 0   -6.9933E+002   -5.2659E+002 
EX  0 102  10 0   2.5599E+003   -1.8188E+003 
EX  0 103  10 0   -1.6043E+003   6.8474E+002 
EX  0 104  10 0   2.0273E+003   3.0524E+002 
EX  0 201  10 0   -9.3743E+002   2.3434E+003 
EX  0 202  10 0   6.2977E+002   -5.3669E+002 
EX  0 203  10 0   -2.8784E+003   -7.5682E+002 
EX  0 204  10 0   1.7588E+001   - 2.3410E+001 
EX  0 301  10 0   -3.8047E+002   1.3795E+003 
EX  0 302  10 0   6.1324E+002   1.1875E+003 
EX  0 303  10 0   -3.8652E+003   5.8728E+001 
EX  0 304  10 0   3.5716E+003   -3.2163E+002 
RP  0  19  72  1010 0.0 0.0 5.0 5.0
EN
