CM
CE
GW 101  20 -7.500000 -5.000000 -5.000000 -7.500000 -5.000000 5.000000 0.001000
GW 102  20 -2.500000 -5.000000 -5.000000 -2.500000 -5.000000 5.000000 0.001000
GW 103  20 2.500000 -5.000000 -5.000000 2.500000 -5.000000 5.000000 0.001000
GW 104  20 7.500000 -5.000000 -5.000000 7.500000 -5.000000 5.000000 0.001000
GW 201  20 -7.500000 0.000000 -5.000000 -7.500000 0.000000 5.000000 0.001000
GW 202  20 -2.500000 0.000000 -5.000000 -2.500000 0.000000 5.000000 0.001000
GW 203  20 2.500000 0.000000 -5.000000 2.500000 0.000000 5.000000 0.001000
GW 204  20 7.500000 0.000000 -5.000000 7.500000 0.000000 5.000000 0.001000
GW 301  20 -7.500000 5.000000 -5.000000 -7.500000 5.000000 5.000000 0.001000
GW 302  20 -2.500000 5.000000 -5.000000 -2.500000 5.000000 5.000000 0.001000
GW 303  20 2.500000 5.000000 -5.000000 2.500000 5.000000 5.000000 0.001000
GW 304  20 7.500000 5.000000 -5.000000 7.500000 5.000000 5.000000 0.001000
GE 0 
GN -1 0  0  0  10.0  0.01 
FR  0  0  0  0   150 
EX  0 101  10 0   -2.6792E+001   -1.0668E+002 
EX  0 102  10 0   -2.1632E+001   1.1028E+002 
EX  0 103  10 0   6.4139E+001   -9.4091E+001 
EX  0 104  10 0   -9.3427E+001   6.3163E+001 
EX  0 201  10 0   -2.3611E+001   -1.0576E+002 
EX  0 202  10 0   -2.8236E+001   1.1000E+002 
EX  0 203  10 0   6.9998E+001   -9.1793E+001 
EX  0 204  10 0   -9.5657E+001    6.1980E+001 
EX  0 301  10 0   -2.6792E+001   -1.0668E+002 
EX  0 302  10 0   -2.1632E+001   1.1028E+002 
EX  0 303  10 0   6.4139E+001   -9.4091E+001 
EX  0 304  10 0   -9.3427E+001   6.3163E+001 
RP  0  19  72  1010 0.0 0.0 5.0 5.0
EN
