CM
CE
GW 101  20 -7.500000 -5.000000 -5.000000 -7.500000 -5.000000 5.000000 0.001000
GW 102  20 -2.500000 -5.000000 -5.000000 -2.500000 -5.000000 5.000000 0.001000
GW 103  20 2.500000 -5.000000 -5.000000 2.500000 -5.000000 5.000000 0.001000
GW 104  20 7.500000 -5.000000 -5.000000 7.500000 -5.000000 5.000000 0.001000
GW 201  20 -7.500000 0.000000 -5.000000 -7.500000 0.000000 5.000000 0.001000
GW 202  20 -2.500000 0.000000 -5.000000 -2.500000 0.000000 5.000000 0.001000
GW 203  20 2.500000 0.000000 -5.000000 2.500000 0.000000 5.000000 0.001000
GW 204  20 7.500000 0.000000 -5.000000 7.500000 0.000000 5.000000 0.001000
GW 301  20 -7.500000 5.000000 -5.000000 -7.500000 5.000000 5.000000 0.001000
GW 302  20 -2.500000 5.000000 -5.000000 -2.500000 5.000000 5.000000 0.001000
GW 303  20 2.500000 5.000000 -5.000000 2.500000 5.000000 5.000000 0.001000
GW 304  20 7.500000 5.000000 -5.000000 7.500000 5.000000 5.000000 0.001000
GE 0 
GN -1 0  0  0  10.0  0.01 
FR  0  0  0  0   150 
EX  0 101  10 0   -6.5050E-001   1.5274E+001 
EX  0 102  10 0   1.4694E+001   7.9895E-001 
EX  0 103  10 0   -1.2070E+001   2.9254E+001 
EX  0 104  10 0   3.0531E+001   -1.8543E+000 
EX  0 201  10 0   -1.0621E+001   -9.1411E+000 
EX  0 202  10 0   5.5180E+001   -2.4312E+001 
EX  0 203  10 0   -2.7120E+001   -4.4750E+000 
EX  0 204  10 0   9.9581E+001   -8.2419E+000 
EX  0 301  10 0   6.0793E+000   -4.7703E+001 
EX  0 302  10 0   2.6544E+001   1.7239E+001 
EX  0 303  10 0   -3.4771E+001   1.9189E+001 
EX  0 304  10 0   8.4697E+000   -1.0786E+001 
RP  0  19  72  1010 0.0 0.0 5.0 5.0
EN
