CM
CE
GW 101  20 -7.500000 -5.000000 -5.000000 -7.500000 -5.000000 5.000000 0.001000
GW 102  20 -2.500000 -5.000000 -5.000000 -2.500000 -5.000000 5.000000 0.001000
GW 103  20 2.500000 -5.000000 -5.000000 2.500000 -5.000000 5.000000 0.001000
GW 104  20 7.500000 -5.000000 -5.000000 7.500000 -5.000000 5.000000 0.001000
GW 201  20 -7.500000 0.000000 -5.000000 -7.500000 0.000000 5.000000 0.001000
GW 202  20 -2.500000 0.000000 -5.000000 -2.500000 0.000000 5.000000 0.001000
GW 203  20 2.500000 0.000000 -5.000000 2.500000 0.000000 5.000000 0.001000
GW 204  20 7.500000 0.000000 -5.000000 7.500000 0.000000 5.000000 0.001000
GW 301  20 -7.500000 5.000000 -5.000000 -7.500000 5.000000 5.000000 0.001000
GW 302  20 -2.500000 5.000000 -5.000000 -2.500000 5.000000 5.000000 0.001000
GW 303  20 2.500000 5.000000 -5.000000 2.500000 5.000000 5.000000 0.001000
GW 304  20 7.500000 5.000000 -5.000000 7.500000 5.000000 5.000000 0.001000
GE 0 
GN -1 0  0  0  10.0  0.01 
FR  0  0  0  0   150 
EX  0 101  10 0   -2.3464E+001   -1.5586E+002 
EX  0 102  10 0   -4.6889E+001   1.5858E+002 
EX  0 103  10 0   1.0775E+002   -1.2832E+002 
EX  0 104  10 0   -1.4239E+002   7.6502E+001 
EX  0 201  10 0   -1.6220E+001   -1.4955E+002 
EX  0 202  10 0   -5.7874E+001   1.5079E+002 
EX  0 203  10 0   1.1076E+002   -1.2101E+002 
EX  0 204  10 0   -1.4054E+002   7.3316E+001 
EX  0 301  10 0   -2.3454E+001   -1.5586E+002 
EX  0 302  10 0   -4.6888E+001   1.5858E+002 
EX  0 303  10 0   1.0776E+002   -1.2832E+002 
EX  0 304  10 0   -1.4240E+002   7.6511E+001 
RP  0  19  72  1010 0.0 0.0 5.0 5.0
EN
