CM
CE
GW 199  100 5.000000 5.000000 0.000000 5.000000 5.000000 15.0000 0.001000
GW 299  100 -5.000000 5.000000 0.000000 -5.000000 5.000000 15.00000 0.001000
GW 399  100 5.000000 -5.000000 0.000000 5.000000 -5.000000 15.00000 0.001000
GW 499  100 -5.000000 -5.000000 0.000000 -5.000000 -5.000000 15.00000 0.001000
GE 1
GN  1  0  0  0  10.0  0.01
FR  0  1  0  0  5.0  
EX  0 199  2  0 1.0      0.0
EX  0 299  2  0 1.0e-9   0.0
EX  0 399  2  0 1.0e-9   0.0
EX  0 499  2  0 1.0e-9   0.0
PT -1
RP  0  19  72  1010 0.0 0.0 5.0 5.0
EN
