CM
CE
GW 101  20 -7.500000 -7.500000 -5.000000 -7.500000 -7.500000 5.000000 0.001000
GW 102  20 7.500000 -7.500000 -5.000000 7.500000 -7.500000 5.000000 0.001000
GW 103  20 -7.500000 7.500000 -5.000000 -7.500000 7.500000 5.000000 0.001000
