CM
CE
GW 101 	 25	 -20.00000	 -20.00000	 0.350000	 -21.75820	 -21.77730	 2.700000	 0.001000
GW 102 	 50	 -21.75820	 -21.77730	 2.700000	 -20.00000	 -20.00000	 15.20000	 0.001000
GW 103 	 25	 -20.00000	 -20.00000	 0.350000	 -22.50000	 -20.01350	 2.700000	 0.001000
GW 104 	 50	 -22.50000	 -20.01350	 2.700000	 -20.00000	 -20.00000	 15.20000	 0.001000
GW 105 	 25	 -20.00000	 -20.00000	 0.350000	 -21.77980	 -17.77730	 2.700000	 0.001000
GW 106 	 50	 -21.77980	 -17.77730	 2.700000	 -20.00000	 -20.00000	 15.20000	 0.001000
GW 107 	 25	 -20.00000	 -20.00000	 0.350000	 -20.01350	 -17.50000	 2.700000	 0.001000
GW 108 	 50	 -20.01350	 -17.50000	 2.700000	 -20.00000	 -20.00000	 15.20000	 0.001000
GW 109 	 25	 -20.00000	 -20.00000	 0.350000	 -17.77980	 -17.75570	 2.700000	 0.001000
GW 110 	 50	 -17.77980	 -17.75570	 2.700000	 -20.00000	 -20.00000	 15.20000	 0.001000
GW 111 	 25	 -20.00000	 -20.00000	 0.350000	 -17.50000	 -19.98650	 2.700000	 0.001000
GW 112 	 50	 -17.50000	 -19.98650	 2.700000	 -20.00000	 -20.00000	 15.20000	 0.001000
GW 113 	 25	 -20.00000	 -20.00000	 0.350000	 -17.75830	 -21.75570	 2.700000	 0.001000
GW 114 	 50	 -17.75830	 -21.75570	 2.700000	 -20.00000	 -20.00000	 15.20000	 0.001000
GW 115 	 25	 -20.00000	 -20.00000	 0.350000	 -19.98650	 -22.50000	 2.700000	 0.001000
GW 116 	 50	 -19.98650	 -22.50000	 2.700000	 -20.00000	 -20.00000	 15.20000	 0.001000
GW 117 	 3 	 -20.00000	 -20.00000	 0.200000	 -20.00000	 -20.00000	 0.350000	 0.001000
GW 118 	 4 	 -20.00000	 -20.00000	 0.200000	 -19.99890	 -20.20000	 0.200000	 0.001000
GW 119 	 50	 -19.99890	 -20.20000	 0.200000	 -19.91900	 -34.99980	 0.200000	 0.001000
GW 120 	 4 	 -20.00000	 -20.00000	 0.200000	 -20.06080	 -20.19050	 0.200000	 0.001000
GW 121 	 50	 -20.06080	 -20.19050	 0.200000	 -24.55820	 -34.29070	 0.200000	 0.001000
GW 122 	 4 	 -20.00000	 -20.00000	 0.200000	 -20.11670	 -20.16240	 0.200000	 0.001000
GW 123 	 50	 -20.11670	 -20.16240	 0.200000	 -28.75110	 -32.18270	 0.200000	 0.001000
GW 124 	 4 	 -20.00000	 -20.00000	 0.200000	 -20.16120	 -20.11840	 0.200000	 0.001000
GW 125 	 50	 -20.16120	 -20.11840	 0.200000	 -32.07130	 -31.88210	 0.200000	 0.001000
GW 126 	 4 	 -20.00000	 -20.00000	 0.200000	 -20.18990	 -20.06280	 0.200000	 0.001000
GW 127 	 50	 -20.18990	 -20.06280	 0.200000	 -34.24060	 -24.71220	 0.200000	 0.001000
GW 128 	 4 	 -20.00000	 -20.00000	 0.200000	 -20.20000	 -20.00110	 0.200000	 0.001000
GW 129 	 50	 -20.20000	 -20.00110	 0.200000	 -34.99980	 -20.08100	 0.200000	 0.001000
GW 130 	 25	 0.000000	 -20.00000	 0.350000	0.013495	 -22.50000	 2.700000	 0.001000
GW 131 	 50	0.013495	 -22.50000	 2.700000	 0.000000	 -20.00000	 15.20000	 0.001000
GW 132 	 25	 0.000000	 -20.00000	 0.350000	 -1.758200	 -21.77730	 2.700000	 0.001000
GW 133 	 50	 -1.758200	 -21.77730	 2.700000	 0.000000	 -20.00000	 15.20000	 0.001000
GW 134 	 25	 0.000000	 -20.00000	 0.350000	 -2.830160	 -19.68680	 2.700000	 0.001000
GW 135 	 50	 -2.830160	 -19.68680	 2.700000	 0.000000	 -20.00000	 15.20000	 0.001000
GW 136 	 25	 0.000000	 -20.00000	 0.350000	 -1.777280	 -18.24180	 2.700000	 0.001000
GW 137 	 50	 -1.777280	 -18.24180	 2.700000	 0.000000	 -20.00000	 15.20000	 0.001000
GW 138 	 25	 0.000000	 -20.00000	 0.350000	0.017041	 -16.84320	 2.700000	 0.001000
GW 139 	 50	0.017041	 -16.84320	 2.700000	 0.000000	 -20.00000	 15.20000	 0.001000
GW 140 	 25	 0.000000	 -20.00000	 0.350000	 1.758200	 -18.22270	 2.700000	 0.001000
GW 141 	 50	 1.758200	 -18.22270	 2.700000	 0.000000	 -20.00000	 15.20000	 0.001000
GW 142 	 25	 0.000000	 -20.00000	 0.350000	 2.826610	 -19.65630	 2.700000	 0.001000
GW 143 	 50	 2.826610	 -19.65630	 2.700000	 0.000000	 -20.00000	 15.20000	 0.001000
GW 144 	 25	 0.000000	 -20.00000	 0.350000	 1.777280	 -21.75820	 2.700000	 0.001000
GW 145 	 50	 1.777280	 -21.75820	 2.700000	 0.000000	 -20.00000	 15.20000	 0.001000
GW 146 	 3 	 0.000000	 -20.00000	 0.200000	 0.000000	 -20.00000	 0.350000	 0.001000
GW 147 	 4 	 0.000000	 -20.00000	 0.200000	0.142183	 -20.14070	 0.200000	 0.001000
GW 148 	 50	0.142183	 -20.14070	 0.200000	 10.66370	 -30.54920	 0.200000	 0.001000
GW 149 	 4 	 0.000000	 -20.00000	 0.200000	0.091758	 -20.17770	 0.200000	 0.001000
GW 150 	 50	0.091758	 -20.17770	 0.200000	 6.881910	 -33.32810	 0.200000	 0.001000
GW 151 	 4 	 0.000000	 -20.00000	 0.200000	0.032352	 -20.19740	 0.200000	 0.001000
GW 152 	 50	0.032352	 -20.19740	 0.200000	 2.426460	 -34.80240	 0.200000	 0.001000
GW 153 	 4 	 0.000000	 -20.00000	 0.200000	0.030219	 -20.19770	 0.200000	 0.001000
GW 154 	 50	0.030219	 -20.19770	 0.200000	0.133767	 -36.93760	 0.200000	 0.001000
GW 155 	 4 	 0.000000	 -20.00000	 0.200000	0.089834	 -20.17870	 0.200000	 0.001000
GW 156 	 50	0.089834	 -20.17870	 0.200000	 -6.737610	 -33.40170	 0.200000	 0.001000
GW 157 	 4 	 0.000000	 -20.00000	 0.200000	0.140656	 -20.14220	 0.200000	 0.001000
GW 158 	 50	0.140656	 -20.14220	 0.200000	 -10.54920	 -30.66370	 0.200000	 0.001000
GW 159 	 25	 20.00000	 -20.00000	 0.350000	 21.77730	 -21.75820	 2.700000	 0.001000
GW 160 	 50	 21.77730	 -21.75820	 2.700000	 20.00000	 -20.00000	 15.20000	 0.001000
GW 161 	 25	 20.00000	 -20.00000	 0.350000	 20.01350	 -22.50000	 2.700000	 0.001000
GW 162 	 50	 20.01350	 -22.50000	 2.700000	 20.00000	 -20.00000	 15.20000	 0.001000
GW 163 	 25	 20.00000	 -20.00000	 0.350000	 17.77730	 -21.77980	 2.700000	 0.001000
GW 164 	 50	 17.77730	 -21.77980	 2.700000	 20.00000	 -20.00000	 15.20000	 0.001000
GW 165 	 25	 20.00000	 -20.00000	 0.350000	 17.50000	 -20.01350	 2.700000	 0.001000
GW 166 	 50	 17.50000	 -20.01350	 2.700000	 20.00000	 -20.00000	 15.20000	 0.001000
GW 167 	 25	 20.00000	 -20.00000	 0.350000	 17.75570	 -17.77980	 2.700000	 0.001000
GW 168 	 50	 17.75570	 -17.77980	 2.700000	 20.00000	 -20.00000	 15.20000	 0.001000
GW 169 	 25	 20.00000	 -20.00000	 0.350000	 19.98650	 -17.50000	 2.700000	 0.001000
GW 170 	 50	 19.98650	 -17.50000	 2.700000	 20.00000	 -20.00000	 15.20000	 0.001000
GW 171 	 25	 20.00000	 -20.00000	 0.350000	 21.75570	 -17.75830	 2.700000	 0.001000
GW 172 	 50	 21.75570	 -17.75830	 2.700000	 20.00000	 -20.00000	 15.20000	 0.001000
GW 173 	 25	 20.00000	 -20.00000	 0.350000	 22.50000	 -19.98650	 2.700000	 0.001000
GW 174 	 50	 22.50000	 -19.98650	 2.700000	 20.00000	 -20.00000	 15.20000	 0.001000
GW 175 	 3 	 20.00000	 -20.00000	 0.200000	 20.00000	 -20.00000	 0.350000	 0.001000
GW 176 	 4 	 20.00000	 -20.00000	 0.200000	 20.20000	 -19.99890	 0.200000	 0.001000
GW 177 	 50	 20.20000	 -19.99890	 0.200000	 34.99980	 -19.91900	 0.200000	 0.001000
GW 178 	 4 	 20.00000	 -20.00000	 0.200000	 20.19050	 -20.06080	 0.200000	 0.001000
GW 179 	 50	 20.19050	 -20.06080	 0.200000	 34.29070	 -24.55820	 0.200000	 0.001000
GW 180 	 4 	 20.00000	 -20.00000	 0.200000	 20.16240	 -20.11670	 0.200000	 0.001000
GW 181 	 50	 20.16240	 -20.11670	 0.200000	 32.18270	 -28.75110	 0.200000	 0.001000
GW 182 	 4 	 20.00000	 -20.00000	 0.200000	 20.11840	 -20.16120	 0.200000	 0.001000
GW 183 	 50	 20.11840	 -20.16120	 0.200000	 31.88210	 -32.07130	 0.200000	 0.001000
GW 184 	 4 	 20.00000	 -20.00000	 0.200000	 20.06280	 -20.18990	 0.200000	 0.001000
GW 185 	 50	 20.06280	 -20.18990	 0.200000	 24.71220	 -34.24060	 0.200000	 0.001000
GW 186 	 4 	 20.00000	 -20.00000	 0.200000	 20.00110	 -20.20000	 0.200000	 0.001000
GW 187 	 50	 20.00110	 -20.20000	 0.200000	 20.08100	 -34.99980	 0.200000	 0.001000
GW 188 	 25	 -20.00000	 0.000000	 0.350000	 -22.50000	0.013495	 2.700000	 0.001000
GW 189 	 50	 -22.50000	0.013495	 2.700000	 -20.00000	 0.000000	 15.20000	 0.001000
GW 190 	 25	 -20.00000	 0.000000	 0.350000	 -21.77730	 1.758200	 2.700000	 0.001000
GW 191 	 50	 -21.77730	 1.758200	 2.700000	 -20.00000	 0.000000	 15.20000	 0.001000
GW 192 	 25	 -20.00000	 0.000000	 0.350000	 -19.68680	 2.830160	 2.700000	 0.001000
GW 193 	 50	 -19.68680	 2.830160	 2.700000	 -20.00000	 0.000000	 15.20000	 0.001000
GW 194 	 25	 -20.00000	 0.000000	 0.350000	 -18.24180	 1.777280	 2.700000	 0.001000
GW 195 	 50	 -18.24180	 1.777280	 2.700000	 -20.00000	 0.000000	 15.20000	 0.001000
GW 196 	 25	 -20.00000	 0.000000	 0.350000	 -16.84320	0.017041	 2.700000	 0.001000
GW 197 	 50	 -16.84320	0.017041	 2.700000	 -20.00000	 0.000000	 15.20000	 0.001000
GW 198 	 25	 -20.00000	 0.000000	 0.350000	 -18.22270	 -1.758200	 2.700000	 0.001000
GW 199 	 50	 -18.22270	 -1.758200	 2.700000	 -20.00000	 0.000000	 15.20000	 0.001000
GW 200 	 25	 -20.00000	 0.000000	 0.350000	 -19.65630	 -2.826610	 2.700000	 0.001000
GW 201 	 50	 -19.65630	 -2.826610	 2.700000	 -20.00000	 0.000000	 15.20000	 0.001000
GW 202 	 25	 -20.00000	 0.000000	 0.350000	 -21.75820	 -1.777280	 2.700000	 0.001000
GW 203 	 50	 -21.75820	 -1.777280	 2.700000	 -20.00000	 0.000000	 15.20000	 0.001000
GW 204 	 3 	 -20.00000	 0.000000	 0.200000	 -20.00000	 0.000000	 0.350000	 0.001000
GW 205 	 4 	 -20.00000	 0.000000	 0.200000	 -20.14070	0.142183	 0.200000	 0.001000
GW 206 	 50	 -20.14070	0.142183	 0.200000	 -30.54920	 -10.66370	 0.200000	 0.001000
GW 207 	 4 	 -20.00000	 0.000000	 0.200000	 -20.17770	0.091758	 0.200000	 0.001000
GW 208 	 50	 -20.17770	0.091758	 0.200000	 -33.32810	 -6.881910	 0.200000	 0.001000
GW 209 	 4 	 -20.00000	 0.000000	 0.200000	 -20.19740	0.032352	 0.200000	 0.001000
GW 210 	 50	 -20.19740	0.032352	 0.200000	 -34.80240	 -2.426460	 0.200000	 0.001000
GW 211 	 4 	 -20.00000	 0.000000	 0.200000	 -20.19770	0.030219	 0.200000	 0.001000
GW 212 	 50	 -20.19770	0.030219	 0.200000	 -36.93760	0.133767	 0.200000	 0.001000
GW 213 	 4 	 -20.00000	 0.000000	 0.200000	 -20.17870	0.089834	 0.200000	 0.001000
GW 214 	 50	 -20.17870	0.089834	 0.200000	 -33.40170	 6.737610	 0.200000	 0.001000
GW 215 	 4 	 -20.00000	 0.000000	 0.200000	 -20.14220	0.140656	 0.200000	 0.001000
GW 216 	 50	 -20.14220	0.140656	 0.200000	 -30.66370	 10.54920	 0.200000	 0.001000
GW 217 	 25	 0.000000	 0.000000	 0.350000	 2.499960	0.013495	 2.700000	 0.001000
GW 218 	 50	 2.499960	0.013495	 2.700000	 0.000000	 0.000000	 15.20000	 0.001000
GW 219 	 25	 0.000000	 0.000000	 0.350000	 1.777280	 -1.758200	 2.700000	 0.001000
GW 220 	 50	 1.777280	 -1.758200	 2.700000	 0.000000	 0.000000	 15.20000	 0.001000
GW 221 	 25	 0.000000	 0.000000	 0.350000	0.313154	 -2.830160	 2.700000	 0.001000
GW 222 	 50	0.313154	 -2.830160	 2.700000	 0.000000	 0.000000	 15.20000	 0.001000
GW 223 	 25	 0.000000	 0.000000	 0.350000	 -1.758200	 -1.777280	 2.700000	 0.001000
GW 224 	 50	 -1.758200	 -1.777280	 2.700000	 0.000000	 0.000000	 15.20000	 0.001000
GW 225 	 25	 0.000000	 0.000000	 0.350000	 -3.156810	0.017041	 2.700000	 0.001000
GW 226 	 50	 -3.156810	0.017041	 2.700000	 0.000000	 0.000000	 15.20000	 0.001000
GW 227 	 25	 0.000000	 0.000000	 0.350000	 -1.777280	 1.758200	 2.700000	 0.001000
GW 228 	 50	 -1.777280	 1.758200	 2.700000	 0.000000	 0.000000	 15.20000	 0.001000
GW 229 	 25	 0.000000	 0.000000	 0.350000	0.343691	 2.826610	 2.700000	 0.001000
GW 230 	 50	0.343691	 2.826610	 2.700000	 0.000000	 0.000000	 15.20000	 0.001000
GW 231 	 25	 0.000000	 0.000000	 0.350000	 1.758200	 1.777280	 2.700000	 0.001000
GW 232 	 50	 1.758200	 1.777280	 2.700000	 0.000000	 0.000000	 15.20000	 0.001000
GW 233 	 3 	 0.000000	 0.000000	 0.200000	 0.000000	 0.000000	 0.350000	 0.001000
GW 234 	 4 	 0.000000	 0.000000	 0.200000	0.140656	0.142183	 0.200000	 0.001000
GW 235 	 50	0.140656	0.142183	 0.200000	 10.54920	 10.66370	 0.200000	 0.001000
GW 236 	 4 	 0.000000	 0.000000	 0.200000	0.177708	0.091758	 0.200000	 0.001000
GW 237 	 50	0.177708	0.091758	 0.200000	 13.32810	 6.881910	 0.200000	 0.001000
GW 238 	 4 	 0.000000	 0.000000	 0.200000	0.197366	0.032352	 0.200000	 0.001000
GW 239 	 50	0.197366	0.032352	 0.200000	 14.80240	 2.426460	 0.200000	 0.001000
GW 240 	 4 	 0.000000	 0.000000	 0.200000	0.197703	0.030219	 0.200000	 0.001000
GW 241 	 50	0.197703	0.030219	 0.200000	 16.93760	0.133767	 0.200000	 0.001000
GW 242 	 4 	 0.000000	 0.000000	 0.200000	0.178688	0.089834	 0.200000	 0.001000
GW 243 	 50	0.178688	0.089834	 0.200000	 13.40170	 -6.737610	 0.200000	 0.001000
GW 244 	 4 	 0.000000	 0.000000	 0.200000	0.142183	0.140656	 0.200000	 0.001000
GW 245 	 50	0.142183	0.140656	 0.200000	 10.66370	 -10.54920	 0.200000	 0.001000
GW 246 	 25	 20.00000	 0.000000	 0.350000	 22.50000	0.013495	 2.700000	 0.001000
GW 247 	 50	 22.50000	0.013495	 2.700000	 20.00000	 0.000000	 15.20000	 0.001000
GW 248 	 25	 20.00000	 0.000000	 0.350000	 21.77730	 -1.758200	 2.700000	 0.001000
GW 249 	 50	 21.77730	 -1.758200	 2.700000	 20.00000	 0.000000	 15.20000	 0.001000
GW 250 	 25	 20.00000	 0.000000	 0.350000	 19.68680	 -2.830160	 2.700000	 0.001000
GW 251 	 50	 19.68680	 -2.830160	 2.700000	 20.00000	 0.000000	 15.20000	 0.001000
GW 252 	 25	 20.00000	 0.000000	 0.350000	 18.24180	 -1.777280	 2.700000	 0.001000
GW 253 	 50	 18.24180	 -1.777280	 2.700000	 20.00000	 0.000000	 15.20000	 0.001000
GW 254 	 25	 20.00000	 0.000000	 0.350000	 16.84320	0.017041	 2.700000	 0.001000
GW 255 	 50	 16.84320	0.017041	 2.700000	 20.00000	 0.000000	 15.20000	 0.001000
GW 256 	 25	 20.00000	 0.000000	 0.350000	 18.22270	 1.758200	 2.700000	 0.001000
GW 257 	 50	 18.22270	 1.758200	 2.700000	 20.00000	 0.000000	 15.20000	 0.001000
GW 258 	 25	 20.00000	 0.000000	 0.350000	 19.65630	 2.826610	 2.700000	 0.001000
GW 259 	 50	 19.65630	 2.826610	 2.700000	 20.00000	 0.000000	 15.20000	 0.001000
GW 260 	 25	 20.00000	 0.000000	 0.350000	 21.75820	 1.777280	 2.700000	 0.001000
GW 261 	 50	 21.75820	 1.777280	 2.700000	 20.00000	 0.000000	 15.20000	 0.001000
GW 262 	 3 	 20.00000	 0.000000	 0.200000	 20.00000	 0.000000	 0.350000	 0.001000
GW 263 	 4 	 20.00000	 0.000000	 0.200000	 20.14070	0.142183	 0.200000	 0.001000
GW 264 	 50	 20.14070	0.142183	 0.200000	 30.54920	 10.66370	 0.200000	 0.001000
GW 265 	 4 	 20.00000	 0.000000	 0.200000	 20.17770	0.091758	 0.200000	 0.001000
GW 266 	 50	 20.17770	0.091758	 0.200000	 33.32810	 6.881910	 0.200000	 0.001000
GW 267 	 4 	 20.00000	 0.000000	 0.200000	 20.19740	0.032352	 0.200000	 0.001000
GW 268 	 50	 20.19740	0.032352	 0.200000	 34.80240	 2.426460	 0.200000	 0.001000
GW 269 	 4 	 20.00000	 0.000000	 0.200000	 20.19770	0.030219	 0.200000	 0.001000
GW 270 	 50	 20.19770	0.030219	 0.200000	 36.93760	0.133767	 0.200000	 0.001000
GW 271 	 4 	 20.00000	 0.000000	 0.200000	 20.17870	0.089834	 0.200000	 0.001000
GW 272 	 50	 20.17870	0.089834	 0.200000	 33.40170	 -6.737610	 0.200000	 0.001000
GW 273 	 4 	 20.00000	 0.000000	 0.200000	 20.14220	0.140656	 0.200000	 0.001000
GW 274 	 50	 20.14220	0.140656	 0.200000	 30.66370	 -10.54920	 0.200000	 0.001000
GW 275 	 25	 -20.00000	 20.00000	 0.350000	 -21.77730	 21.75820	 2.700000	 0.001000
GW 276 	 50	 -21.77730	 21.75820	 2.700000	 -20.00000	 20.00000	 15.20000	 0.001000
GW 277 	 25	 -20.00000	 20.00000	 0.350000	 -20.01350	 22.50000	 2.700000	 0.001000
GW 278 	 50	 -20.01350	 22.50000	 2.700000	 -20.00000	 20.00000	 15.20000	 0.001000
GW 279 	 25	 -20.00000	 20.00000	 0.350000	 -17.77730	 21.77980	 2.700000	 0.001000
GW 280 	 50	 -17.77730	 21.77980	 2.700000	 -20.00000	 20.00000	 15.20000	 0.001000
GW 281 	 25	 -20.00000	 20.00000	 0.350000	 -17.50000	 20.01350	 2.700000	 0.001000
GW 282 	 50	 -17.50000	 20.01350	 2.700000	 -20.00000	 20.00000	 15.20000	 0.001000
GW 283 	 25	 -20.00000	 20.00000	 0.350000	 -17.75570	 17.77980	 2.700000	 0.001000
GW 284 	 50	 -17.75570	 17.77980	 2.700000	 -20.00000	 20.00000	 15.20000	 0.001000
GW 285 	 25	 -20.00000	 20.00000	 0.350000	 -19.98650	 17.50000	 2.700000	 0.001000
GW 286 	 50	 -19.98650	 17.50000	 2.700000	 -20.00000	 20.00000	 15.20000	 0.001000
GW 287 	 25	 -20.00000	 20.00000	 0.350000	 -21.75570	 17.75830	 2.700000	 0.001000
GW 288 	 50	 -21.75570	 17.75830	 2.700000	 -20.00000	 20.00000	 15.20000	 0.001000
GW 289 	 25	 -20.00000	 20.00000	 0.350000	 -22.50000	 19.98650	 2.700000	 0.001000
GW 290 	 50	 -22.50000	 19.98650	 2.700000	 -20.00000	 20.00000	 15.20000	 0.001000
GW 291 	 3 	 -20.00000	 20.00000	 0.200000	 -20.00000	 20.00000	 0.350000	 0.001000
GW 292 	 4 	 -20.00000	 20.00000	 0.200000	 -20.20000	 19.99890	 0.200000	 0.001000
GW 293 	 50	 -20.20000	 19.99890	 0.200000	 -34.99980	 19.91900	 0.200000	 0.001000
GW 294 	 4 	 -20.00000	 20.00000	 0.200000	 -20.19050	 20.06080	 0.200000	 0.001000
GW 295 	 50	 -20.19050	 20.06080	 0.200000	 -34.29070	 24.55820	 0.200000	 0.001000
GW 296 	 4 	 -20.00000	 20.00000	 0.200000	 -20.16240	 20.11670	 0.200000	 0.001000
GW 297 	 50	 -20.16240	 20.11670	 0.200000	 -32.18270	 28.75110	 0.200000	 0.001000
GW 298 	 4 	 -20.00000	 20.00000	 0.200000	 -20.11840	 20.16120	 0.200000	 0.001000
GW 299 	 50	 -20.11840	 20.16120	 0.200000	 -31.88210	 32.07130	 0.200000	 0.001000
GW 300 	 4 	 -20.00000	 20.00000	 0.200000	 -20.06280	 20.18990	 0.200000	 0.001000
GW 301 	 50	 -20.06280	 20.18990	 0.200000	 -24.71220	 34.24060	 0.200000	 0.001000
GW 302 	 4 	 -20.00000	 20.00000	 0.200000	 -20.00110	 20.20000	 0.200000	 0.001000
GW 303 	 50	 -20.00110	 20.20000	 0.200000	 -20.08100	 34.99980	 0.200000	 0.001000
GW 304 	 25	 0.000000	 20.00000	 0.350000	0.013495	 22.50000	 2.700000	 0.001000
GW 305 	 50	0.013495	 22.50000	 2.700000	 0.000000	 20.00000	 15.20000	 0.001000
GW 306 	 25	 0.000000	 20.00000	 0.350000	 1.758200	 21.77730	 2.700000	 0.001000
GW 307 	 50	 1.758200	 21.77730	 2.700000	 0.000000	 20.00000	 15.20000	 0.001000
GW 308 	 25	 0.000000	 20.00000	 0.350000	 2.830160	 19.68680	 2.700000	 0.001000
GW 309 	 50	 2.830160	 19.68680	 2.700000	 0.000000	 20.00000	 15.20000	 0.001000
GW 310 	 25	 0.000000	 20.00000	 0.350000	 1.777280	 18.24180	 2.700000	 0.001000
GW 311 	 50	 1.777280	 18.24180	 2.700000	 0.000000	 20.00000	 15.20000	 0.001000
GW 312 	 25	 0.000000	 20.00000	 0.350000	0.017041	 16.84320	 2.700000	 0.001000
GW 313 	 50	0.017041	 16.84320	 2.700000	 0.000000	 20.00000	 15.20000	 0.001000
GW 314 	 25	 0.000000	 20.00000	 0.350000	 -1.758200	 18.22270	 2.700000	 0.001000
GW 315 	 50	 -1.758200	 18.22270	 2.700000	 0.000000	 20.00000	 15.20000	 0.001000
GW 316 	 25	 0.000000	 20.00000	 0.350000	 -2.826610	 19.65630	 2.700000	 0.001000
GW 317 	 50	 -2.826610	 19.65630	 2.700000	 0.000000	 20.00000	 15.20000	 0.001000
GW 318 	 25	 0.000000	 20.00000	 0.350000	 -1.777280	 21.75820	 2.700000	 0.001000
GW 319 	 50	 -1.777280	 21.75820	 2.700000	 0.000000	 20.00000	 15.20000	 0.001000
GW 320 	 3 	 0.000000	 20.00000	 0.200000	 0.000000	 20.00000	 0.350000	 0.001000
GW 321 	 4 	 0.000000	 20.00000	 0.200000	0.142183	 20.14070	 0.200000	 0.001000
GW 322 	 50	0.142183	 20.14070	 0.200000	 -10.66370	 30.54920	 0.200000	 0.001000
GW 323 	 4 	 0.000000	 20.00000	 0.200000	0.091758	 20.17770	 0.200000	 0.001000
GW 324 	 50	0.091758	 20.17770	 0.200000	 -6.881910	 33.32810	 0.200000	 0.001000
GW 325 	 4 	 0.000000	 20.00000	 0.200000	0.032352	 20.19740	 0.200000	 0.001000
GW 326 	 50	0.032352	 20.19740	 0.200000	 -2.426460	 34.80240	 0.200000	 0.001000
GW 327 	 4 	 0.000000	 20.00000	 0.200000	0.030219	 20.19770	 0.200000	 0.001000
GW 328 	 50	0.030219	 20.19770	 0.200000	0.133767	 36.93760	 0.200000	 0.001000
GW 329 	 4 	 0.000000	 20.00000	 0.200000	0.089834	 20.17870	 0.200000	 0.001000
GW 330 	 50	0.089834	 20.17870	 0.200000	 6.737610	 33.40170	 0.200000	 0.001000
GW 331 	 4 	 0.000000	 20.00000	 0.200000	0.140656	 20.14220	 0.200000	 0.001000
GW 332 	 50	0.140656	 20.14220	 0.200000	 10.54920	 30.66370	 0.200000	 0.001000
GW 333 	 25	 20.00000	 20.00000	 0.350000	 21.75820	 21.77730	 2.700000	 0.001000
GW 334 	 50	 21.75820	 21.77730	 2.700000	 20.00000	 20.00000	 15.20000	 0.001000
GW 335 	 25	 20.00000	 20.00000	 0.350000	 22.50000	 20.01350	 2.700000	 0.001000
GW 336 	 50	 22.50000	 20.01350	 2.700000	 20.00000	 20.00000	 15.20000	 0.001000
GW 337 	 25	 20.00000	 20.00000	 0.350000	 21.77980	 17.77730	 2.700000	 0.001000
GW 338 	 50	 21.77980	 17.77730	 2.700000	 20.00000	 20.00000	 15.20000	 0.001000
GW 339 	 25	 20.00000	 20.00000	 0.350000	 20.01350	 17.50000	 2.700000	 0.001000
GW 340 	 50	 20.01350	 17.50000	 2.700000	 20.00000	 20.00000	 15.20000	 0.001000
GW 341 	 25	 20.00000	 20.00000	 0.350000	 17.77980	 17.75570	 2.700000	 0.001000
GW 342 	 50	 17.77980	 17.75570	 2.700000	 20.00000	 20.00000	 15.20000	 0.001000
GW 343 	 25	 20.00000	 20.00000	 0.350000	 17.50000	 19.98650	 2.700000	 0.001000
GW 344 	 50	 17.50000	 19.98650	 2.700000	 20.00000	 20.00000	 15.20000	 0.001000
GW 345 	 25	 20.00000	 20.00000	 0.350000	 17.75830	 21.75570	 2.700000	 0.001000
GW 346 	 50	 17.75830	 21.75570	 2.700000	 20.00000	 20.00000	 15.20000	 0.001000
GW 347 	 25	 20.00000	 20.00000	 0.350000	 19.98650	 22.50000	 2.700000	 0.001000
GW 348 	 50	 19.98650	 22.50000	 2.700000	 20.00000	 20.00000	 15.20000	 0.001000
GW 349 	 3 	 20.00000	 20.00000	 0.200000	 20.00000	 20.00000	 0.350000	 0.001000
GW 350 	 4 	 20.00000	 20.00000	 0.200000	 19.99890	 20.20000	 0.200000	 0.001000
GW 351 	 50	 19.99890	 20.20000	 0.200000	 19.91900	 34.99980	 0.200000	 0.001000
GW 352 	 4 	 20.00000	 20.00000	 0.200000	 20.06080	 20.19050	 0.200000	 0.001000
GW 353 	 50	 20.06080	 20.19050	 0.200000	 24.55820	 34.29070	 0.200000	 0.001000
GW 354 	 4 	 20.00000	 20.00000	 0.200000	 20.11670	 20.16240	 0.200000	 0.001000
GW 355 	 50	 20.11670	 20.16240	 0.200000	 28.75110	 32.18270	 0.200000	 0.001000
GW 356 	 4 	 20.00000	 20.00000	 0.200000	 20.16120	 20.11840	 0.200000	 0.001000
GW 357 	 50	 20.16120	 20.11840	 0.200000	 32.07130	 31.88210	 0.200000	 0.001000
GW 358 	 4 	 20.00000	 20.00000	 0.200000	 20.18990	 20.06280	 0.200000	 0.001000
GW 359 	 50	 20.18990	 20.06280	 0.200000	 34.24060	 24.71220	 0.200000	 0.001000
GW 360 	 4 	 20.00000	 20.00000	 0.200000	 20.20000	 20.00110	 0.200000	 0.001000
GW 361 	 50	 20.20000	 20.00110	 0.200000	 34.99980	 20.08100	 0.200000	 0.001000
GE 1 
GN  2  0  0  0  10.0  0.01 
FR  0  0  0  0   5.0 
EX  0 117  2  0    1.0000E-009    0.0000E+000 
EX  0 146  2  0    1.0000E+000    0.0000E+000 
EX  0 175  2  0    1.0000E-009    0.0000E+000 
EX  0 204  2  0    1.0000E-009    0.0000E+000 
EX  0 233  2  0    1.0000E-009    0.0000E+000 
EX  0 262  2  0    1.0000E-009    0.0000E+000 
EX  0 291  2  0    1.0000E-009    0.0000E+000 
EX  0 320  2  0    1.0000E-009    0.0000E+000 
EX  0 349  2  0    1.0000E-009    0.0000E+000 
PT -1
RP  0  19  72  1010 0.0 0.0 5.0 5.0
EN
