CM
CE
GW 101 	 25	 -10.00000	 -10.00000	 0.350000	 -11.75820	 -11.77730	 2.700000	 0.001000
GW 102 	 50	 -11.75820	 -11.77730	 2.700000	 -10.00000	 -10.00000	 15.20000	 0.001000
GW 103 	 25	 -10.00000	 -10.00000	 0.350000	 -12.50000	 -10.01350	 2.700000	 0.001000
GW 104 	 50	 -12.50000	 -10.01350	 2.700000	 -10.00000	 -10.00000	 15.20000	 0.001000
GW 105 	 25	 -10.00000	 -10.00000	 0.350000	 -11.77980	 -7.777340	 2.700000	 0.001000
GW 106 	 50	 -11.77980	 -7.777340	 2.700000	 -10.00000	 -10.00000	 15.20000	 0.001000
GW 107 	 25	 -10.00000	 -10.00000	 0.350000	 -10.01350	 -7.500040	 2.700000	 0.001000
GW 108 	 50	 -10.01350	 -7.500040	 2.700000	 -10.00000	 -10.00000	 15.20000	 0.001000
GW 109 	 25	 -10.00000	 -10.00000	 0.350000	 -7.779850	 -7.755750	 2.700000	 0.001000
GW 110 	 50	 -7.779850	 -7.755750	 2.700000	 -10.00000	 -10.00000	 15.20000	 0.001000
GW 111 	 25	 -10.00000	 -10.00000	 0.350000	 -7.500040	 -9.986500	 2.700000	 0.001000
GW 112 	 50	 -7.500040	 -9.986500	 2.700000	 -10.00000	 -10.00000	 15.20000	 0.001000
GW 113 	 25	 -10.00000	 -10.00000	 0.350000	 -7.758260	 -11.75570	 2.700000	 0.001000
GW 114 	 50	 -7.758260	 -11.75570	 2.700000	 -10.00000	 -10.00000	 15.20000	 0.001000
GW 115 	 25	 -10.00000	 -10.00000	 0.350000	 -9.986500	 -12.50000	 2.700000	 0.001000
GW 116 	 50	 -9.986500	 -12.50000	 2.700000	 -10.00000	 -10.00000	 15.20000	 0.001000
GW 117 	 3 	 -10.00000	 -10.00000	 0.200000	 -10.00000	 -10.00000	 0.350000	 0.001000
GW 118 	 25	 -10.00000	 -10.00000	 -0.350000	 -11.75820	 -11.77730	 -2.700000	 0.001000
GW 119 	 50	 -11.75820	 -11.77730	 -2.700000	 -10.00000	 -10.00000	 -15.20000	 0.001000
GW 120 	 25	 -10.00000	 -10.00000	 -0.350000	 -12.50000	 -10.01350	 -2.700000	 0.001000
GW 121 	 50	 -12.50000	 -10.01350	 -2.700000	 -10.00000	 -10.00000	 -15.20000	 0.001000
GW 122 	 25	 -10.00000	 -10.00000	 -0.350000	 -11.77980	 -7.777340	 -2.700000	 0.001000
GW 123 	 50	 -11.77980	 -7.777340	 -2.700000	 -10.00000	 -10.00000	 -15.20000	 0.001000
GW 124 	 25	 -10.00000	 -10.00000	 -0.350000	 -10.01350	 -7.500040	 -2.700000	 0.001000
GW 125 	 50	 -10.01350	 -7.500040	 -2.700000	 -10.00000	 -10.00000	 -15.20000	 0.001000
GW 126 	 25	 -10.00000	 -10.00000	 -0.350000	 -7.779850	 -7.755750	 -2.700000	 0.001000
GW 127 	 50	 -7.779850	 -7.755750	 -2.700000	 -10.00000	 -10.00000	 -15.20000	 0.001000
GW 128 	 25	 -10.00000	 -10.00000	 -0.350000	 -7.500040	 -9.986500	 -2.700000	 0.001000
GW 129 	 50	 -7.500040	 -9.986500	 -2.700000	 -10.00000	 -10.00000	 -15.20000	 0.001000
GW 130 	 25	 -10.00000	 -10.00000	 -0.350000	 -7.758260	 -11.75570	 -2.700000	 0.001000
GW 131 	 50	 -7.758260	 -11.75570	 -2.700000	 -10.00000	 -10.00000	 -15.20000	 0.001000
GW 132 	 25	 -10.00000	 -10.00000	 -0.350000	 -9.986500	 -12.50000	 -2.700000	 0.001000
GW 133 	 50	 -9.986500	 -12.50000	 -2.700000	 -10.00000	 -10.00000	 -15.20000	 0.001000
GW 134 	 3 	 -10.00000	 -10.00000	 -0.200000	 -10.00000	 -10.00000	 -0.350000	 0.001000
GW 135 	 25	 10.00000	 -10.00000	 0.350000	 11.77730	 -11.75820	 2.700000	 0.001000
GW 136 	 50	 11.77730	 -11.75820	 2.700000	 10.00000	 -10.00000	 15.20000	 0.001000
GW 137 	 25	 10.00000	 -10.00000	 0.350000	 10.01350	 -12.50000	 2.700000	 0.001000
GW 138 	 50	 10.01350	 -12.50000	 2.700000	 10.00000	 -10.00000	 15.20000	 0.001000
GW 139 	 25	 10.00000	 -10.00000	 0.350000	 7.777340	 -11.77980	 2.700000	 0.001000
GW 140 	 50	 7.777340	 -11.77980	 2.700000	 10.00000	 -10.00000	 15.20000	 0.001000
GW 141 	 25	 10.00000	 -10.00000	 0.350000	 7.500040	 -10.01350	 2.700000	 0.001000
GW 142 	 50	 7.500040	 -10.01350	 2.700000	 10.00000	 -10.00000	 15.20000	 0.001000
GW 143 	 25	 10.00000	 -10.00000	 0.350000	 7.755750	 -7.779850	 2.700000	 0.001000
GW 144 	 50	 7.755750	 -7.779850	 2.700000	 10.00000	 -10.00000	 15.20000	 0.001000
GW 145 	 25	 10.00000	 -10.00000	 0.350000	 9.986500	 -7.500040	 2.700000	 0.001000
GW 146 	 50	 9.986500	 -7.500040	 2.700000	 10.00000	 -10.00000	 15.20000	 0.001000
GW 147 	 25	 10.00000	 -10.00000	 0.350000	 11.75570	 -7.758260	 2.700000	 0.001000
GW 148 	 50	 11.75570	 -7.758260	 2.700000	 10.00000	 -10.00000	 15.20000	 0.001000
GW 149 	 25	 10.00000	 -10.00000	 0.350000	 12.50000	 -9.986500	 2.700000	 0.001000
GW 150 	 50	 12.50000	 -9.986500	 2.700000	 10.00000	 -10.00000	 15.20000	 0.001000
GW 151 	 3 	 10.00000	 -10.00000	 0.200000	 10.00000	 -10.00000	 0.350000	 0.001000
GW 152 	 25	 10.00000	 -10.00000	 -0.350000	 11.77730	 -11.75820	 -2.700000	 0.001000
GW 153 	 50	 11.77730	 -11.75820	 -2.700000	 10.00000	 -10.00000	 -15.20000	 0.001000
GW 154 	 25	 10.00000	 -10.00000	 -0.350000	 10.01350	 -12.50000	 -2.700000	 0.001000
GW 155 	 50	 10.01350	 -12.50000	 -2.700000	 10.00000	 -10.00000	 -15.20000	 0.001000
GW 156 	 25	 10.00000	 -10.00000	 -0.350000	 7.777340	 -11.77980	 -2.700000	 0.001000
GW 157 	 50	 7.777340	 -11.77980	 -2.700000	 10.00000	 -10.00000	 -15.20000	 0.001000
GW 158 	 25	 10.00000	 -10.00000	 -0.350000	 7.500040	 -10.01350	 -2.700000	 0.001000
GW 159 	 50	 7.500040	 -10.01350	 -2.700000	 10.00000	 -10.00000	 -15.20000	 0.001000
GW 160 	 25	 10.00000	 -10.00000	 -0.350000	 7.755750	 -7.779850	 -2.700000	 0.001000
GW 161 	 50	 7.755750	 -7.779850	 -2.700000	 10.00000	 -10.00000	 -15.20000	 0.001000
GW 162 	 25	 10.00000	 -10.00000	 -0.350000	 9.986500	 -7.500040	 -2.700000	 0.001000
GW 163 	 50	 9.986500	 -7.500040	 -2.700000	 10.00000	 -10.00000	 -15.20000	 0.001000
GW 164 	 25	 10.00000	 -10.00000	 -0.350000	 11.75570	 -7.758260	 -2.700000	 0.001000
GW 165 	 50	 11.75570	 -7.758260	 -2.700000	 10.00000	 -10.00000	 -15.20000	 0.001000
GW 166 	 25	 10.00000	 -10.00000	 -0.350000	 12.50000	 -9.986500	 -2.700000	 0.001000
GW 167 	 50	 12.50000	 -9.986500	 -2.700000	 10.00000	 -10.00000	 -15.20000	 0.001000
GW 168 	 3 	 10.00000	 -10.00000	 -0.200000	 10.00000	 -10.00000	 -0.350000	 0.001000
GW 169 	 25	 -10.00000	 10.00000	 0.350000	 -11.77730	 11.75820	 2.700000	 0.001000
GW 170 	 50	 -11.77730	 11.75820	 2.700000	 -10.00000	 10.00000	 15.20000	 0.001000
GW 171 	 25	 -10.00000	 10.00000	 0.350000	 -10.01350	 12.50000	 2.700000	 0.001000
GW 172 	 50	 -10.01350	 12.50000	 2.700000	 -10.00000	 10.00000	 15.20000	 0.001000
GW 173 	 25	 -10.00000	 10.00000	 0.350000	 -7.777340	 11.77980	 2.700000	 0.001000
GW 174 	 50	 -7.777340	 11.77980	 2.700000	 -10.00000	 10.00000	 15.20000	 0.001000
GW 175 	 25	 -10.00000	 10.00000	 0.350000	 -7.500040	 10.01350	 2.700000	 0.001000
GW 176 	 50	 -7.500040	 10.01350	 2.700000	 -10.00000	 10.00000	 15.20000	 0.001000
GW 177 	 25	 -10.00000	 10.00000	 0.350000	 -7.755750	 7.779850	 2.700000	 0.001000
GW 178 	 50	 -7.755750	 7.779850	 2.700000	 -10.00000	 10.00000	 15.20000	 0.001000
GW 179 	 25	 -10.00000	 10.00000	 0.350000	 -9.986500	 7.500040	 2.700000	 0.001000
GW 180 	 50	 -9.986500	 7.500040	 2.700000	 -10.00000	 10.00000	 15.20000	 0.001000
GW 181 	 25	 -10.00000	 10.00000	 0.350000	 -11.75570	 7.758260	 2.700000	 0.001000
GW 182 	 50	 -11.75570	 7.758260	 2.700000	 -10.00000	 10.00000	 15.20000	 0.001000
GW 183 	 25	 -10.00000	 10.00000	 0.350000	 -12.50000	 9.986500	 2.700000	 0.001000
GW 184 	 50	 -12.50000	 9.986500	 2.700000	 -10.00000	 10.00000	 15.20000	 0.001000
GW 185 	 3 	 -10.00000	 10.00000	 0.200000	 -10.00000	 10.00000	 0.350000	 0.001000
GW 186 	 25	 -10.00000	 10.00000	 -0.350000	 -11.77730	 11.75820	 -2.700000	 0.001000
GW 187 	 50	 -11.77730	 11.75820	 -2.700000	 -10.00000	 10.00000	 -15.20000	 0.001000
GW 188 	 25	 -10.00000	 10.00000	 -0.350000	 -10.01350	 12.50000	 -2.700000	 0.001000
GW 189 	 50	 -10.01350	 12.50000	 -2.700000	 -10.00000	 10.00000	 -15.20000	 0.001000
GW 190 	 25	 -10.00000	 10.00000	 -0.350000	 -7.777340	 11.77980	 -2.700000	 0.001000
GW 191 	 50	 -7.777340	 11.77980	 -2.700000	 -10.00000	 10.00000	 -15.20000	 0.001000
GW 192 	 25	 -10.00000	 10.00000	 -0.350000	 -7.500040	 10.01350	 -2.700000	 0.001000
GW 193 	 50	 -7.500040	 10.01350	 -2.700000	 -10.00000	 10.00000	 -15.20000	 0.001000
GW 194 	 25	 -10.00000	 10.00000	 -0.350000	 -7.755750	 7.779850	 -2.700000	 0.001000
GW 195 	 50	 -7.755750	 7.779850	 -2.700000	 -10.00000	 10.00000	 -15.20000	 0.001000
GW 196 	 25	 -10.00000	 10.00000	 -0.350000	 -9.986500	 7.500040	 -2.700000	 0.001000
GW 197 	 50	 -9.986500	 7.500040	 -2.700000	 -10.00000	 10.00000	 -15.20000	 0.001000
GW 198 	 25	 -10.00000	 10.00000	 -0.350000	 -11.75570	 7.758260	 -2.700000	 0.001000
GW 199 	 50	 -11.75570	 7.758260	 -2.700000	 -10.00000	 10.00000	 -15.20000	 0.001000
GW 200 	 25	 -10.00000	 10.00000	 -0.350000	 -12.50000	 9.986500	 -2.700000	 0.001000
GW 201 	 50	 -12.50000	 9.986500	 -2.700000	 -10.00000	 10.00000	 -15.20000	 0.001000
GW 202 	 3 	 -10.00000	 10.00000	 -0.200000	 -10.00000	 10.00000	 -0.350000	 0.001000
GW 203 	 25	 10.00000	 10.00000	 0.350000	 11.75820	 11.77730	 2.700000	 0.001000
GW 204 	 50	 11.75820	 11.77730	 2.700000	 10.00000	 10.00000	 15.20000	 0.001000
GW 205 	 25	 10.00000	 10.00000	 0.350000	 12.50000	 10.01350	 2.700000	 0.001000
GW 206 	 50	 12.50000	 10.01350	 2.700000	 10.00000	 10.00000	 15.20000	 0.001000
GW 207 	 25	 10.00000	 10.00000	 0.350000	 11.77980	 7.777340	 2.700000	 0.001000
GW 208 	 50	 11.77980	 7.777340	 2.700000	 10.00000	 10.00000	 15.20000	 0.001000
GW 209 	 25	 10.00000	 10.00000	 0.350000	 10.01350	 7.500040	 2.700000	 0.001000
GW 210 	 50	 10.01350	 7.500040	 2.700000	 10.00000	 10.00000	 15.20000	 0.001000
GW 211 	 25	 10.00000	 10.00000	 0.350000	 7.779850	 7.755750	 2.700000	 0.001000
GW 212 	 50	 7.779850	 7.755750	 2.700000	 10.00000	 10.00000	 15.20000	 0.001000
GW 213 	 25	 10.00000	 10.00000	 0.350000	 7.500040	 9.986500	 2.700000	 0.001000
GW 214 	 50	 7.500040	 9.986500	 2.700000	 10.00000	 10.00000	 15.20000	 0.001000
GW 215 	 25	 10.00000	 10.00000	 0.350000	 7.758260	 11.75570	 2.700000	 0.001000
GW 216 	 50	 7.758260	 11.75570	 2.700000	 10.00000	 10.00000	 15.20000	 0.001000
GW 217 	 25	 10.00000	 10.00000	 0.350000	 9.986500	 12.50000	 2.700000	 0.001000
GW 218 	 50	 9.986500	 12.50000	 2.700000	 10.00000	 10.00000	 15.20000	 0.001000
GW 219 	 3 	 10.00000	 10.00000	 0.200000	 10.00000	 10.00000	 0.350000	 0.001000
GW 220 	 25	 10.00000	 10.00000	 -0.350000	 11.75820	 11.77730	 -2.700000	 0.001000
GW 221 	 50	 11.75820	 11.77730	 -2.700000	 10.00000	 10.00000	 -15.20000	 0.001000
GW 222 	 25	 10.00000	 10.00000	 -0.350000	 12.50000	 10.01350	 -2.700000	 0.001000
GW 223 	 50	 12.50000	 10.01350	 -2.700000	 10.00000	 10.00000	 -15.20000	 0.001000
GW 224 	 25	 10.00000	 10.00000	 -0.350000	 11.77980	 7.777340	 -2.700000	 0.001000
GW 225 	 50	 11.77980	 7.777340	 -2.700000	 10.00000	 10.00000	 -15.20000	 0.001000
GW 226 	 25	 10.00000	 10.00000	 -0.350000	 10.01350	 7.500040	 -2.700000	 0.001000
GW 227 	 50	 10.01350	 7.500040	 -2.700000	 10.00000	 10.00000	 -15.20000	 0.001000
GW 228 	 25	 10.00000	 10.00000	 -0.350000	 7.779850	 7.755750	 -2.700000	 0.001000
GW 229 	 50	 7.779850	 7.755750	 -2.700000	 10.00000	 10.00000	 -15.20000	 0.001000
GW 230 	 25	 10.00000	 10.00000	 -0.350000	 7.500040	 9.986500	 -2.700000	 0.001000
GW 231 	 50	 7.500040	 9.986500	 -2.700000	 10.00000	 10.00000	 -15.20000	 0.001000
GW 232 	 25	 10.00000	 10.00000	 -0.350000	 7.758260	 11.75570	 -2.700000	 0.001000
GW 233 	 50	 7.758260	 11.75570	 -2.700000	 10.00000	 10.00000	 -15.20000	 0.001000
GW 234 	 25	 10.00000	 10.00000	 -0.350000	 9.986500	 12.50000	 -2.700000	 0.001000
GW 235 	 50	 9.986500	 12.50000	 -2.700000	 10.00000	 10.00000	 -15.20000	 0.001000
GW 236 	 3 	 10.00000	 10.00000	 -0.200000	 10.00000	 10.00000	 -0.350000	 0.001000
GE 1 
GN -1 0  0  0  0.00   0.00 
FR  0  0  0  0   5.0 
EX  0 117  2  0    1.0000E-009    0.0000E+000 
EX  0 151  2  0    1.0000E+000    0.0000E+000 
EX  0 185  2  0    1.0000E-009    0.0000E+000 
EX  0 219  2  0    1.0000E-009    0.0000E+000 
PT -1
RP  0  19  72  1010 0.0 0.0 5.0 5.0
EN
