GW	101	25	0	0	0.350000	1.767767	1.767767	2.700000	0.001000
GW	102	50	1.767767	1.767767	2.700000	0	0	15.200000	0.001000
GW	103	25	0	0	0.350000	2.500000	0	2.700000	0.001000
GW	104	50	2.500000	0	2.700000	0	0	15.200000	0.001000
GW	105	25	0	0	0.350000	1.767767	-2.232233	2.700000	0.001000
GW	106	50	1.767767	-2.232233	2.700000	0	0	15.200000	0.001000
GW	107	25	0	0	0.350000	0	-2.500000	2.700000	0.001000
GW	108	50	0	-2.500000	2.700000	0	0	15.200000	0.001000
GW	109	25	0	0	0.350000	-2.232233	-2.232233	2.700000	0.001000
GW	110	50	-2.232233	-2.232233	2.700000	0	0	15.200000	0.001000
GW	111	25	0	0	0.350000	-2.500000	0	2.700000	0.001000
GW	112	50	-2.500000	0	2.700000	0	0	15.200000	0.001000
GW	113	25	0	0	0.350000	-2.232233	1.767767	2.700000	0.001000
GW	114	50	-2.232233	1.767767	2.700000	0	0	15.200000	0.001000
GW	115	25	0	0	0.350000	0	2.500000	2.700000	0.001000
GW	116	50	0	2.500000	2.700000	0	0	15.200000	0.001000
GW	199	3	0	0	-0.350000	0	0	0.350000	0.001000
GW	201	25	0	0	-0.350000	1.767767	1.767767	-2.700000	0.001000
GW	202	50	1.767767	1.767767	-2.700000	0	0	-15.200000	0.001000
GW	203	25	0	0	-0.350000	2.500000	0	-2.700000	0.001000
GW	204	50	2.500000	0	-2.700000	0	0	-15.200000	0.001000
GW	205	25	0	0	-0.350000	1.767767	-2.232233	-2.700000	0.001000
GW	206	50	1.767767	-2.232233	-2.700000	0	0	-15.200000	0.001000
GW	207	25	0	0	-0.350000	0	-2.500000	-2.700000	0.001000
GW	208	50	0	-2.500000	-2.700000	0	0	-15.200000	0.001000
GW	209	25	0	0	-0.350000	-2.232233	-2.232233	-2.700000	0.001000
GW	210	50	-2.232233	-2.232233	-2.700000	0	0	-15.200000	0.001000
GW	211	25	0	0	-0.350000	-2.500000	0	-2.700000	0.001000
GW	212	50	-2.500000	0	-2.700000	0	0	-15.200000	0.001000
GW	213	25	0	0	-0.350000	-2.232233	1.767767	-2.700000	0.001000
GW	214	50	-2.232233	1.767767	-2.700000	0	0	-15.200000	0.001000
GW	215	25	0	0	-0.350000	0	2.500000	-2.700000	0.001000
GW	216	50	0	2.500000	-2.700000	0	0	-15.200000	0.001000
EX  	0 199  2  0 1.0      0.0
