GW 101  25 0.000000 0.000000 0.350000 1.767767 1.767767 2.700000 0.001000
GW 102  50 1.767767 1.767767 2.700000 0.000000 0.000000 15.200000 0.001000
GW 103  25 0.000000 0.000000 0.350000 2.500000 0.000000 2.700000 0.001000
GW 104  50 2.500000 0.000000 2.700000 0.000000 0.000000 15.200000 0.001000
GW 105  25 0.000000 0.000000 0.350000 1.767767 -2.232233 2.700000 0.001000
GW 106  50 1.767767 -2.232233 2.700000 0.000000 0.000000 15.200000 0.001000
GW 107  25 0.000000 0.000000 0.350000 0.000000 -2.500000 2.700000 0.001000
GW 108  50 0.000000 -2.500000 2.700000 0.000000 0.000000 15.200000 0.001000
GW 109  25 0.000000 0.000000 0.350000 -2.232233 -2.232233 2.700000 0.001000
GW 110  50 -2.232233 -2.232233 2.700000 0.000000 0.000000 15.200000 0.001000
GW 111  25 0.000000 0.000000 0.350000 -2.500000 0.000000 2.700000 0.001000
GW 112  50 -2.500000 0.000000 2.700000 0.000000 0.000000 15.200000 0.001000
GW 113  25 0.000000 0.000000 0.350000 -2.232233 1.767767 2.700000 0.001000
GW 114  50 -2.232233 1.767767 2.700000 0.000000 0.000000 15.200000 0.001000
GW 115  25 0.000000 0.000000 0.350000 0.000000 2.500000 2.700000 0.001000
GW 116  50 0.000000 2.500000 2.700000 0.000000 0.000000 15.200000 0.001000
GW 199   3 0.000000 0.000000 0.200000 0.000000 0.000000 0.350000 0.001000
GW 200   4 0.000000 0.000000 0.200000 0.000000 0.200000 0.200000 0.001000
GW 201  50 0.000000 0.200000 0.200000 0.000000 15.000000 0.200000 0.001000
GW 202   4 0.000000 0.000000 0.200000 0.061803 0.190211 0.200000 0.001000
GW 203  50 0.061803 0.190211 0.200000 4.635255 14.265848 0.200000 0.001000
GW 204   4 0.000000 0.000000 0.200000 0.117557 0.161803 0.200000 0.001000
GW 205  50 0.117557 0.161803 0.200000 8.816779 12.135255 0.200000 0.001000
GW 206   4 0.000000 0.000000 0.200000 0.161803 0.117557 0.200000 0.001000
GW 207  50 0.161803 0.117557 0.200000 12.135255 11.816779 0.200000 0.001000
GW 208   4 0.000000 0.000000 0.200000 0.190211 0.061803 0.200000 0.001000
GW 209  50 0.190211 0.061803 0.200000 14.265848 4.635255 0.200000 0.001000
GW 210   4 0.000000 0.000000 0.200000 0.200000 0.000000 0.200000 0.001000
GW 211  50 0.200000 0.000000 0.200000 15.000000 0.000000 0.200000 0.001000
EX  0 199  2  0 1.0      0.0
